
---------- Begin Simulation Statistics ----------
final_tick                                 3478677000                       # Number of ticks from beginning of simulation (restored from checkpoints and never reset)
host_inst_rate                                 119802                       # Simulator instruction rate (inst/s)
host_mem_usage                                 866920                       # Number of bytes of host memory used
host_op_rate                                   204255                       # Simulator op (including micro ops) rate (op/s)
host_seconds                                    13.21                       # Real time elapsed on the host
host_tick_rate                              263370712                       # Simulator tick rate (ticks/s)
sim_freq                                 1000000000000                       # Frequency of simulated ticks
sim_insts                                     1582355                       # Number of instructions simulated
sim_ops                                       2697849                       # Number of ops (including micro ops) simulated
sim_seconds                                  0.003479                       # Number of seconds simulated
sim_ticks                                  3478677000                       # Number of ticks simulated
system.cpu.branchPred.BTBCorrect                    0                       # Number of correct BTB predictions (this stat may not work properly.
system.cpu.branchPred.BTBHitPct                   nan                       # BTB Hit Percentage
system.cpu.branchPred.BTBHits                       0                       # Number of BTB hits
system.cpu.branchPred.BTBLookups                    0                       # Number of BTB lookups
system.cpu.branchPred.RASInCorrect                  0                       # Number of incorrect RAS predictions.
system.cpu.branchPred.condIncorrect                58                       # Number of conditional branches incorrect
system.cpu.branchPred.condPredicted                77                       # Number of conditional branches predicted
system.cpu.branchPred.indirectHits                  2                       # Number of indirect target hits.
system.cpu.branchPred.indirectLookups              34                       # Number of indirect predictor lookups.
system.cpu.branchPred.indirectMisses               32                       # Number of indirect misses.
system.cpu.branchPred.lookups                      77                       # Number of BP lookups
system.cpu.branchPred.usedRAS                       0                       # Number of times the RAS was used to get a target.
system.cpu.branchPredindirectMispredicted           24                       # Number of mispredicted indirect branches.
system.cpu.committedInsts                     1582355                       # Number of instructions committed
system.cpu.committedOps                       2697849                       # Number of ops (including micro ops) committed
system.cpu.cpi                               4.396835                       # CPI: cycles per instruction
system.cpu.discardedOps                        306058                       # Number of ops (including micro ops) which were discarded before commit
system.cpu.dtb.rdAccesses                      392149                       # TLB accesses on read requests
system.cpu.dtb.rdMisses                          1321                       # TLB misses on read requests
system.cpu.dtb.wrAccesses                      145080                       # TLB accesses on write requests
system.cpu.dtb.wrMisses                            73                       # TLB misses on write requests
system.cpu.fetch2.amo_instructions                  0                       # Number of memory atomic instructions successfully decoded
system.cpu.fetch2.fp_instructions                   0                       # Number of floating point instructions successfully decoded
system.cpu.fetch2.int_instructions               2015                       # Number of integer instructions successfully decoded
system.cpu.fetch2.load_instructions                 0                       # Number of memory load instructions successfully decoded
system.cpu.fetch2.store_instructions                0                       # Number of memory store instructions successfully decoded
system.cpu.fetch2.vec_instructions                  0                       # Number of SIMD instructions successfully decoded
system.cpu.idleCycles                         1272969                       # Total number of cycles that the object has spent stopped
system.cpu.ipc                               0.227436                       # IPC: instructions per cycle
system.cpu.itb.rdAccesses                           0                       # TLB accesses on read requests
system.cpu.itb.rdMisses                             0                       # TLB misses on read requests
system.cpu.itb.wrAccesses                      516642                       # TLB accesses on write requests
system.cpu.itb.wrMisses                           266                       # TLB misses on write requests
system.cpu.numCycles                          6957354                       # number of cpu cycles simulated
system.cpu.numFetchSuspends                         0                       # Number of times Execute suspended instruction fetching
system.cpu.numWorkItemsCompleted                    0                       # number of work items this cpu completed
system.cpu.numWorkItemsStarted                      0                       # number of work items this cpu started
system.cpu.op_class_0::No_OpClass               17154      0.64%      0.64% # Class of committed instruction
system.cpu.op_class_0::IntAlu                 2104635     78.01%     78.65% # Class of committed instruction
system.cpu.op_class_0::IntMult                   1913      0.07%     78.72% # Class of committed instruction
system.cpu.op_class_0::IntDiv                   24008      0.89%     79.61% # Class of committed instruction
system.cpu.op_class_0::FloatAdd                  6618      0.25%     79.85% # Class of committed instruction
system.cpu.op_class_0::FloatCmp                     0      0.00%     79.85% # Class of committed instruction
system.cpu.op_class_0::FloatCvt                  1232      0.05%     79.90% # Class of committed instruction
system.cpu.op_class_0::FloatMult                 4000      0.15%     80.05% # Class of committed instruction
system.cpu.op_class_0::FloatMultAcc                 0      0.00%     80.05% # Class of committed instruction
system.cpu.op_class_0::FloatDiv                     0      0.00%     80.05% # Class of committed instruction
system.cpu.op_class_0::FloatMisc                    0      0.00%     80.05% # Class of committed instruction
system.cpu.op_class_0::FloatSqrt                    0      0.00%     80.05% # Class of committed instruction
system.cpu.op_class_0::SimdAdd                     16      0.00%     80.05% # Class of committed instruction
system.cpu.op_class_0::SimdAddAcc                   0      0.00%     80.05% # Class of committed instruction
system.cpu.op_class_0::SimdAlu                   4186      0.16%     80.20% # Class of committed instruction
system.cpu.op_class_0::SimdCmp                      0      0.00%     80.20% # Class of committed instruction
system.cpu.op_class_0::SimdCvt                    174      0.01%     80.21% # Class of committed instruction
system.cpu.op_class_0::SimdMisc                  4165      0.15%     80.36% # Class of committed instruction
system.cpu.op_class_0::SimdMult                     0      0.00%     80.36% # Class of committed instruction
system.cpu.op_class_0::SimdMultAcc                  0      0.00%     80.36% # Class of committed instruction
system.cpu.op_class_0::SimdShift                   24      0.00%     80.36% # Class of committed instruction
system.cpu.op_class_0::SimdShiftAcc                 0      0.00%     80.36% # Class of committed instruction
system.cpu.op_class_0::SimdDiv                      0      0.00%     80.36% # Class of committed instruction
system.cpu.op_class_0::SimdSqrt                     0      0.00%     80.36% # Class of committed instruction
system.cpu.op_class_0::SimdFloatAdd              6000      0.22%     80.59% # Class of committed instruction
system.cpu.op_class_0::SimdFloatAlu                 0      0.00%     80.59% # Class of committed instruction
system.cpu.op_class_0::SimdFloatCmp                 0      0.00%     80.59% # Class of committed instruction
system.cpu.op_class_0::SimdFloatCvt              4000      0.15%     80.74% # Class of committed instruction
system.cpu.op_class_0::SimdFloatDiv              2000      0.07%     80.81% # Class of committed instruction
system.cpu.op_class_0::SimdFloatMisc                0      0.00%     80.81% # Class of committed instruction
system.cpu.op_class_0::SimdFloatMult             4000      0.15%     80.96% # Class of committed instruction
system.cpu.op_class_0::SimdFloatMultAcc             0      0.00%     80.96% # Class of committed instruction
system.cpu.op_class_0::SimdFloatSqrt                0      0.00%     80.96% # Class of committed instruction
system.cpu.op_class_0::SimdReduceAdd                0      0.00%     80.96% # Class of committed instruction
system.cpu.op_class_0::SimdReduceAlu                0      0.00%     80.96% # Class of committed instruction
system.cpu.op_class_0::SimdReduceCmp                0      0.00%     80.96% # Class of committed instruction
system.cpu.op_class_0::SimdFloatReduceAdd            0      0.00%     80.96% # Class of committed instruction
system.cpu.op_class_0::SimdFloatReduceCmp            0      0.00%     80.96% # Class of committed instruction
system.cpu.op_class_0::SimdAes                      0      0.00%     80.96% # Class of committed instruction
system.cpu.op_class_0::SimdAesMix                   0      0.00%     80.96% # Class of committed instruction
system.cpu.op_class_0::SimdSha1Hash                 0      0.00%     80.96% # Class of committed instruction
system.cpu.op_class_0::SimdSha1Hash2                0      0.00%     80.96% # Class of committed instruction
system.cpu.op_class_0::SimdSha256Hash               0      0.00%     80.96% # Class of committed instruction
system.cpu.op_class_0::SimdSha256Hash2              0      0.00%     80.96% # Class of committed instruction
system.cpu.op_class_0::SimdShaSigma2                0      0.00%     80.96% # Class of committed instruction
system.cpu.op_class_0::SimdShaSigma3                0      0.00%     80.96% # Class of committed instruction
system.cpu.op_class_0::SimdPredAlu                  0      0.00%     80.96% # Class of committed instruction
system.cpu.op_class_0::MemRead                 352236     13.06%     94.01% # Class of committed instruction
system.cpu.op_class_0::MemWrite                132387      4.91%     98.92% # Class of committed instruction
system.cpu.op_class_0::FloatMemRead             16636      0.62%     99.54% # Class of committed instruction
system.cpu.op_class_0::FloatMemWrite            12465      0.46%    100.00% # Class of committed instruction
system.cpu.op_class_0::IprAccess                    0      0.00%    100.00% # Class of committed instruction
system.cpu.op_class_0::InstPrefetch                 0      0.00%    100.00% # Class of committed instruction
system.cpu.op_class_0::total                  2697849                       # Class of committed instruction
system.cpu.tickCycles                         5684385                       # Number of cycles that the object actually ticked
system.cpu.workload.numSyscalls                    58                       # Number of system calls
system.membus.snoop_filter.hit_multi_requests            0                       # Number of requests hitting in the snoop filter with multiple (>1) holders of the requested data.
system.membus.snoop_filter.hit_multi_snoops            0                       # Number of snoops hitting in the snoop filter with multiple (>1) holders of the requested data.
system.membus.snoop_filter.hit_single_requests            0                       # Number of requests hitting in the snoop filter with a single holder of the requested data.
system.membus.snoop_filter.hit_single_snoops            0                       # Number of snoops hitting in the snoop filter with a single holder of the requested data.
system.membus.snoop_filter.tot_requests          9151                       # Total number of requests made to the snoop filter.
system.membus.snoop_filter.tot_snoops               0                       # Total number of snoops made to the snoop filter.
system.tol2bus.snoop_filter.hit_multi_requests            5                       # Number of requests hitting in the snoop filter with multiple (>1) holders of the requested data.
system.tol2bus.snoop_filter.hit_multi_snoops            0                       # Number of snoops hitting in the snoop filter with multiple (>1) holders of the requested data.
system.tol2bus.snoop_filter.hit_single_requests        10770                       # Number of requests hitting in the snoop filter with a single holder of the requested data.
system.tol2bus.snoop_filter.hit_single_snoops            0                       # Number of snoops hitting in the snoop filter with a single holder of the requested data.
system.tol2bus.snoop_filter.tot_requests        23077                       # Total number of requests made to the snoop filter.
system.tol2bus.snoop_filter.tot_snoops              0                       # Total number of snoops made to the snoop filter.
system.membus.trans_dist::ReadResp               7638                       # Transaction distribution
system.membus.trans_dist::ReadExReq              1513                       # Transaction distribution
system.membus.trans_dist::ReadExResp             1513                       # Transaction distribution
system.membus.trans_dist::ReadSharedReq          7638                       # Transaction distribution
system.membus.pkt_count_system.l2.mem_side::system.mem_ctrls.port        18302                       # Packet count per connected master and slave (bytes)
system.membus.pkt_count_system.l2.mem_side::total        18302                       # Packet count per connected master and slave (bytes)
system.membus.pkt_count::total                  18302                       # Packet count per connected master and slave (bytes)
system.membus.pkt_size_system.l2.mem_side::system.mem_ctrls.port       585664                       # Cumulative packet size per connected master and slave (bytes)
system.membus.pkt_size_system.l2.mem_side::total       585664                       # Cumulative packet size per connected master and slave (bytes)
system.membus.pkt_size::total                  585664                       # Cumulative packet size per connected master and slave (bytes)
system.membus.snoops                                0                       # Total snoops (count)
system.membus.snoopTraffic                          0                       # Total snoop traffic (bytes)
system.membus.snoop_fanout::samples              9151                       # Request fanout histogram
system.membus.snoop_fanout::mean                    0                       # Request fanout histogram
system.membus.snoop_fanout::stdev                   0                       # Request fanout histogram
system.membus.snoop_fanout::underflows              0      0.00%      0.00% # Request fanout histogram
system.membus.snoop_fanout::0                    9151    100.00%    100.00% # Request fanout histogram
system.membus.snoop_fanout::1                       0      0.00%    100.00% # Request fanout histogram
system.membus.snoop_fanout::overflows               0      0.00%    100.00% # Request fanout histogram
system.membus.snoop_fanout::min_value               0                       # Request fanout histogram
system.membus.snoop_fanout::max_value               0                       # Request fanout histogram
system.membus.snoop_fanout::total                9151                       # Request fanout histogram
system.membus.reqLayer2.occupancy            11199000                       # Layer occupancy (ticks)
system.membus.reqLayer2.utilization               0.3                       # Layer utilization (%)
system.membus.respLayer1.occupancy           48979250                       # Layer occupancy (ticks)
system.membus.respLayer1.utilization              1.4                       # Layer utilization (%)
system.membus.power_state.pwrStateResidencyTicks::UNDEFINED   3478677000                       # Cumulative time (in ticks) in various power states
system.tol2bus.trans_dist::ReadResp             10424                       # Transaction distribution
system.tol2bus.trans_dist::WritebackDirty         2210                       # Transaction distribution
system.tol2bus.trans_dist::WritebackClean         1232                       # Transaction distribution
system.tol2bus.trans_dist::CleanEvict            7328                       # Transaction distribution
system.tol2bus.trans_dist::ReadExReq             1882                       # Transaction distribution
system.tol2bus.trans_dist::ReadExResp            1882                       # Transaction distribution
system.tol2bus.trans_dist::ReadCleanReq          1745                       # Transaction distribution
system.tol2bus.trans_dist::ReadSharedReq         8680                       # Transaction distribution
system.tol2bus.pkt_count_system.cpu.icache.mem_side::system.l2.cpu_side         4721                       # Packet count per connected master and slave (bytes)
system.tol2bus.pkt_count_system.cpu.dcache.mem_side::system.l2.cpu_side        30662                       # Packet count per connected master and slave (bytes)
system.tol2bus.pkt_count::total                 35383                       # Packet count per connected master and slave (bytes)
system.tol2bus.pkt_size_system.cpu.icache.mem_side::system.l2.cpu_side       190464                       # Cumulative packet size per connected master and slave (bytes)
system.tol2bus.pkt_size_system.cpu.dcache.mem_side::system.l2.cpu_side       817408                       # Cumulative packet size per connected master and slave (bytes)
system.tol2bus.pkt_size::total                1007872                       # Cumulative packet size per connected master and slave (bytes)
system.tol2bus.snoops                               0                       # Total snoops (count)
system.tol2bus.snoopTraffic                         0                       # Total snoop traffic (bytes)
system.tol2bus.snoop_fanout::samples            12307                       # Request fanout histogram
system.tol2bus.snoop_fanout::mean            0.000406                       # Request fanout histogram
system.tol2bus.snoop_fanout::stdev           0.020153                       # Request fanout histogram
system.tol2bus.snoop_fanout::underflows             0      0.00%      0.00% # Request fanout histogram
system.tol2bus.snoop_fanout::0                  12302     99.96%     99.96% # Request fanout histogram
system.tol2bus.snoop_fanout::1                      5      0.04%    100.00% # Request fanout histogram
system.tol2bus.snoop_fanout::2                      0      0.00%    100.00% # Request fanout histogram
system.tol2bus.snoop_fanout::3                      0      0.00%    100.00% # Request fanout histogram
system.tol2bus.snoop_fanout::4                      0      0.00%    100.00% # Request fanout histogram
system.tol2bus.snoop_fanout::overflows              0      0.00%    100.00% # Request fanout histogram
system.tol2bus.snoop_fanout::min_value              0                       # Request fanout histogram
system.tol2bus.snoop_fanout::max_value              1                       # Request fanout histogram
system.tol2bus.snoop_fanout::total              12307                       # Request fanout histogram
system.tol2bus.reqLayer0.occupancy           14980500                       # Layer occupancy (ticks)
system.tol2bus.reqLayer0.utilization              0.4                       # Layer utilization (%)
system.tol2bus.respLayer1.occupancy          15843000                       # Layer occupancy (ticks)
system.tol2bus.respLayer1.utilization             0.5                       # Layer utilization (%)
system.tol2bus.respLayer0.occupancy           2616000                       # Layer occupancy (ticks)
system.tol2bus.respLayer0.utilization             0.1                       # Layer utilization (%)
system.tol2bus.power_state.pwrStateResidencyTicks::UNDEFINED   3478677000                       # Cumulative time (in ticks) in various power states
system.voltage_domain.voltage                       1                       # Voltage in Volts
system.clk_domain.clock                          1000                       # Clock period in ticks
system.l2.demand_hits::.cpu.inst                  141                       # number of demand (read+write) hits
system.l2.demand_hits::.cpu.data                 3015                       # number of demand (read+write) hits
system.l2.demand_hits::total                     3156                       # number of demand (read+write) hits
system.l2.overall_hits::.cpu.inst                 141                       # number of overall hits
system.l2.overall_hits::.cpu.data                3015                       # number of overall hits
system.l2.overall_hits::total                    3156                       # number of overall hits
system.l2.demand_misses::.cpu.inst               1604                       # number of demand (read+write) misses
system.l2.demand_misses::.cpu.data               7547                       # number of demand (read+write) misses
system.l2.demand_misses::total                   9151                       # number of demand (read+write) misses
system.l2.overall_misses::.cpu.inst              1604                       # number of overall misses
system.l2.overall_misses::.cpu.data              7547                       # number of overall misses
system.l2.overall_misses::total                  9151                       # number of overall misses
system.l2.demand_miss_latency::.cpu.inst    122050500                       # number of demand (read+write) miss cycles
system.l2.demand_miss_latency::.cpu.data    607408500                       # number of demand (read+write) miss cycles
system.l2.demand_miss_latency::total        729459000                       # number of demand (read+write) miss cycles
system.l2.overall_miss_latency::.cpu.inst    122050500                       # number of overall miss cycles
system.l2.overall_miss_latency::.cpu.data    607408500                       # number of overall miss cycles
system.l2.overall_miss_latency::total       729459000                       # number of overall miss cycles
system.l2.demand_accesses::.cpu.inst             1745                       # number of demand (read+write) accesses
system.l2.demand_accesses::.cpu.data            10562                       # number of demand (read+write) accesses
system.l2.demand_accesses::total                12307                       # number of demand (read+write) accesses
system.l2.overall_accesses::.cpu.inst            1745                       # number of overall (read+write) accesses
system.l2.overall_accesses::.cpu.data           10562                       # number of overall (read+write) accesses
system.l2.overall_accesses::total               12307                       # number of overall (read+write) accesses
system.l2.demand_miss_rate::.cpu.inst        0.919198                       # miss rate for demand accesses
system.l2.demand_miss_rate::.cpu.data        0.714543                       # miss rate for demand accesses
system.l2.demand_miss_rate::total            0.743561                       # miss rate for demand accesses
system.l2.overall_miss_rate::.cpu.inst       0.919198                       # miss rate for overall accesses
system.l2.overall_miss_rate::.cpu.data       0.714543                       # miss rate for overall accesses
system.l2.overall_miss_rate::total           0.743561                       # miss rate for overall accesses
system.l2.demand_avg_miss_latency::.cpu.inst 76091.334165                       # average overall miss latency
system.l2.demand_avg_miss_latency::.cpu.data 80483.437127                       # average overall miss latency
system.l2.demand_avg_miss_latency::total 79713.583215                       # average overall miss latency
system.l2.overall_avg_miss_latency::.cpu.inst 76091.334165                       # average overall miss latency
system.l2.overall_avg_miss_latency::.cpu.data 80483.437127                       # average overall miss latency
system.l2.overall_avg_miss_latency::total 79713.583215                       # average overall miss latency
system.l2.blocked_cycles::no_mshrs                  0                       # number of cycles access was blocked
system.l2.blocked_cycles::no_targets                0                       # number of cycles access was blocked
system.l2.blocked::no_mshrs                         0                       # number of cycles access was blocked
system.l2.blocked::no_targets                       0                       # number of cycles access was blocked
system.l2.avg_blocked_cycles::no_mshrs            nan                       # average number of cycles each access was blocked
system.l2.avg_blocked_cycles::no_targets          nan                       # average number of cycles each access was blocked
system.l2.demand_mshr_misses::.cpu.inst          1604                       # number of demand (read+write) MSHR misses
system.l2.demand_mshr_misses::.cpu.data          7547                       # number of demand (read+write) MSHR misses
system.l2.demand_mshr_misses::total              9151                       # number of demand (read+write) MSHR misses
system.l2.overall_mshr_misses::.cpu.inst         1604                       # number of overall MSHR misses
system.l2.overall_mshr_misses::.cpu.data         7547                       # number of overall MSHR misses
system.l2.overall_mshr_misses::total             9151                       # number of overall MSHR misses
system.l2.demand_mshr_miss_latency::.cpu.inst    106010500                       # number of demand (read+write) MSHR miss cycles
system.l2.demand_mshr_miss_latency::.cpu.data    531938500                       # number of demand (read+write) MSHR miss cycles
system.l2.demand_mshr_miss_latency::total    637949000                       # number of demand (read+write) MSHR miss cycles
system.l2.overall_mshr_miss_latency::.cpu.inst    106010500                       # number of overall MSHR miss cycles
system.l2.overall_mshr_miss_latency::.cpu.data    531938500                       # number of overall MSHR miss cycles
system.l2.overall_mshr_miss_latency::total    637949000                       # number of overall MSHR miss cycles
system.l2.demand_mshr_miss_rate::.cpu.inst     0.919198                       # mshr miss rate for demand accesses
system.l2.demand_mshr_miss_rate::.cpu.data     0.714543                       # mshr miss rate for demand accesses
system.l2.demand_mshr_miss_rate::total       0.743561                       # mshr miss rate for demand accesses
system.l2.overall_mshr_miss_rate::.cpu.inst     0.919198                       # mshr miss rate for overall accesses
system.l2.overall_mshr_miss_rate::.cpu.data     0.714543                       # mshr miss rate for overall accesses
system.l2.overall_mshr_miss_rate::total      0.743561                       # mshr miss rate for overall accesses
system.l2.demand_avg_mshr_miss_latency::.cpu.inst 66091.334165                       # average overall mshr miss latency
system.l2.demand_avg_mshr_miss_latency::.cpu.data 70483.437127                       # average overall mshr miss latency
system.l2.demand_avg_mshr_miss_latency::total 69713.583215                       # average overall mshr miss latency
system.l2.overall_avg_mshr_miss_latency::.cpu.inst 66091.334165                       # average overall mshr miss latency
system.l2.overall_avg_mshr_miss_latency::.cpu.data 70483.437127                       # average overall mshr miss latency
system.l2.overall_avg_mshr_miss_latency::total 69713.583215                       # average overall mshr miss latency
system.l2.replacements                              0                       # number of replacements
system.l2.WritebackDirty_hits::.writebacks         2210                       # number of WritebackDirty hits
system.l2.WritebackDirty_hits::total             2210                       # number of WritebackDirty hits
system.l2.WritebackDirty_accesses::.writebacks         2210                       # number of WritebackDirty accesses(hits+misses)
system.l2.WritebackDirty_accesses::total         2210                       # number of WritebackDirty accesses(hits+misses)
system.l2.WritebackClean_hits::.writebacks         1231                       # number of WritebackClean hits
system.l2.WritebackClean_hits::total             1231                       # number of WritebackClean hits
system.l2.WritebackClean_accesses::.writebacks         1231                       # number of WritebackClean accesses(hits+misses)
system.l2.WritebackClean_accesses::total         1231                       # number of WritebackClean accesses(hits+misses)
system.l2.ReadExReq_hits::.cpu.data               369                       # number of ReadExReq hits
system.l2.ReadExReq_hits::total                   369                       # number of ReadExReq hits
system.l2.ReadExReq_misses::.cpu.data            1513                       # number of ReadExReq misses
system.l2.ReadExReq_misses::total                1513                       # number of ReadExReq misses
system.l2.ReadExReq_miss_latency::.cpu.data    118515000                       # number of ReadExReq miss cycles
system.l2.ReadExReq_miss_latency::total     118515000                       # number of ReadExReq miss cycles
system.l2.ReadExReq_accesses::.cpu.data          1882                       # number of ReadExReq accesses(hits+misses)
system.l2.ReadExReq_accesses::total              1882                       # number of ReadExReq accesses(hits+misses)
system.l2.ReadExReq_miss_rate::.cpu.data     0.803932                       # miss rate for ReadExReq accesses
system.l2.ReadExReq_miss_rate::total         0.803932                       # miss rate for ReadExReq accesses
system.l2.ReadExReq_avg_miss_latency::.cpu.data 78331.130205                       # average ReadExReq miss latency
system.l2.ReadExReq_avg_miss_latency::total 78331.130205                       # average ReadExReq miss latency
system.l2.ReadExReq_mshr_misses::.cpu.data         1513                       # number of ReadExReq MSHR misses
system.l2.ReadExReq_mshr_misses::total           1513                       # number of ReadExReq MSHR misses
system.l2.ReadExReq_mshr_miss_latency::.cpu.data    103385000                       # number of ReadExReq MSHR miss cycles
system.l2.ReadExReq_mshr_miss_latency::total    103385000                       # number of ReadExReq MSHR miss cycles
system.l2.ReadExReq_mshr_miss_rate::.cpu.data     0.803932                       # mshr miss rate for ReadExReq accesses
system.l2.ReadExReq_mshr_miss_rate::total     0.803932                       # mshr miss rate for ReadExReq accesses
system.l2.ReadExReq_avg_mshr_miss_latency::.cpu.data 68331.130205                       # average ReadExReq mshr miss latency
system.l2.ReadExReq_avg_mshr_miss_latency::total 68331.130205                       # average ReadExReq mshr miss latency
system.l2.ReadCleanReq_hits::.cpu.inst            141                       # number of ReadCleanReq hits
system.l2.ReadCleanReq_hits::total                141                       # number of ReadCleanReq hits
system.l2.ReadCleanReq_misses::.cpu.inst         1604                       # number of ReadCleanReq misses
system.l2.ReadCleanReq_misses::total             1604                       # number of ReadCleanReq misses
system.l2.ReadCleanReq_miss_latency::.cpu.inst    122050500                       # number of ReadCleanReq miss cycles
system.l2.ReadCleanReq_miss_latency::total    122050500                       # number of ReadCleanReq miss cycles
system.l2.ReadCleanReq_accesses::.cpu.inst         1745                       # number of ReadCleanReq accesses(hits+misses)
system.l2.ReadCleanReq_accesses::total           1745                       # number of ReadCleanReq accesses(hits+misses)
system.l2.ReadCleanReq_miss_rate::.cpu.inst     0.919198                       # miss rate for ReadCleanReq accesses
system.l2.ReadCleanReq_miss_rate::total      0.919198                       # miss rate for ReadCleanReq accesses
system.l2.ReadCleanReq_avg_miss_latency::.cpu.inst 76091.334165                       # average ReadCleanReq miss latency
system.l2.ReadCleanReq_avg_miss_latency::total 76091.334165                       # average ReadCleanReq miss latency
system.l2.ReadCleanReq_mshr_misses::.cpu.inst         1604                       # number of ReadCleanReq MSHR misses
system.l2.ReadCleanReq_mshr_misses::total         1604                       # number of ReadCleanReq MSHR misses
system.l2.ReadCleanReq_mshr_miss_latency::.cpu.inst    106010500                       # number of ReadCleanReq MSHR miss cycles
system.l2.ReadCleanReq_mshr_miss_latency::total    106010500                       # number of ReadCleanReq MSHR miss cycles
system.l2.ReadCleanReq_mshr_miss_rate::.cpu.inst     0.919198                       # mshr miss rate for ReadCleanReq accesses
system.l2.ReadCleanReq_mshr_miss_rate::total     0.919198                       # mshr miss rate for ReadCleanReq accesses
system.l2.ReadCleanReq_avg_mshr_miss_latency::.cpu.inst 66091.334165                       # average ReadCleanReq mshr miss latency
system.l2.ReadCleanReq_avg_mshr_miss_latency::total 66091.334165                       # average ReadCleanReq mshr miss latency
system.l2.ReadSharedReq_hits::.cpu.data          2646                       # number of ReadSharedReq hits
system.l2.ReadSharedReq_hits::total              2646                       # number of ReadSharedReq hits
system.l2.ReadSharedReq_misses::.cpu.data         6034                       # number of ReadSharedReq misses
system.l2.ReadSharedReq_misses::total            6034                       # number of ReadSharedReq misses
system.l2.ReadSharedReq_miss_latency::.cpu.data    488893500                       # number of ReadSharedReq miss cycles
system.l2.ReadSharedReq_miss_latency::total    488893500                       # number of ReadSharedReq miss cycles
system.l2.ReadSharedReq_accesses::.cpu.data         8680                       # number of ReadSharedReq accesses(hits+misses)
system.l2.ReadSharedReq_accesses::total          8680                       # number of ReadSharedReq accesses(hits+misses)
system.l2.ReadSharedReq_miss_rate::.cpu.data     0.695161                       # miss rate for ReadSharedReq accesses
system.l2.ReadSharedReq_miss_rate::total     0.695161                       # miss rate for ReadSharedReq accesses
system.l2.ReadSharedReq_avg_miss_latency::.cpu.data 81023.118992                       # average ReadSharedReq miss latency
system.l2.ReadSharedReq_avg_miss_latency::total 81023.118992                       # average ReadSharedReq miss latency
system.l2.ReadSharedReq_mshr_misses::.cpu.data         6034                       # number of ReadSharedReq MSHR misses
system.l2.ReadSharedReq_mshr_misses::total         6034                       # number of ReadSharedReq MSHR misses
system.l2.ReadSharedReq_mshr_miss_latency::.cpu.data    428553500                       # number of ReadSharedReq MSHR miss cycles
system.l2.ReadSharedReq_mshr_miss_latency::total    428553500                       # number of ReadSharedReq MSHR miss cycles
system.l2.ReadSharedReq_mshr_miss_rate::.cpu.data     0.695161                       # mshr miss rate for ReadSharedReq accesses
system.l2.ReadSharedReq_mshr_miss_rate::total     0.695161                       # mshr miss rate for ReadSharedReq accesses
system.l2.ReadSharedReq_avg_mshr_miss_latency::.cpu.data 71023.118992                       # average ReadSharedReq mshr miss latency
system.l2.ReadSharedReq_avg_mshr_miss_latency::total 71023.118992                       # average ReadSharedReq mshr miss latency
system.l2.power_state.pwrStateResidencyTicks::UNDEFINED   3478677000                       # Cumulative time (in ticks) in various power states
system.l2.tags.tagsinuse                  5369.744503                       # Cycle average of tags in use
system.l2.tags.total_refs                           0                       # Total number of references to valid blocks.
system.l2.tags.sampled_refs                         0                       # Sample count of references to valid blocks.
system.l2.tags.avg_refs                           nan                       # Average number of references to valid blocks.
system.l2.tags.warmup_cycle                     77000                       # Cycle when the warmup percentage was hit.
system.l2.tags.occ_blocks::.cpu.inst       844.586062                       # Average occupied blocks per requestor
system.l2.tags.occ_blocks::.cpu.data      4525.158441                       # Average occupied blocks per requestor
system.l2.tags.occ_percent::.cpu.inst        0.025775                       # Average percentage of cache occupancy
system.l2.tags.occ_percent::.cpu.data        0.138097                       # Average percentage of cache occupancy
system.l2.tags.occ_percent::total            0.163872                       # Average percentage of cache occupancy
system.l2.tags.occ_task_id_blocks::1024          9151                       # Occupied blocks per task id
system.l2.tags.age_task_id_blocks_1024::0            4                       # Occupied blocks per task id
system.l2.tags.age_task_id_blocks_1024::1           32                       # Occupied blocks per task id
system.l2.tags.age_task_id_blocks_1024::2         2753                       # Occupied blocks per task id
system.l2.tags.age_task_id_blocks_1024::3         6362                       # Occupied blocks per task id
system.l2.tags.occ_task_id_percent::1024     0.279266                       # Percentage of cache occupancy per task id
system.l2.tags.tag_accesses                    193727                       # Number of tag accesses
system.l2.tags.data_accesses                   193727                       # Number of data accesses
system.l2.tags.power_state.pwrStateResidencyTicks::UNDEFINED   3478677000                       # Cumulative time (in ticks) in various power states
system.cpu_voltage_domain.voltage                   1                       # Voltage in Volts
system.mem_ctrls.bytes_read::.cpu.inst         102656                       # Number of bytes read from this memory
system.mem_ctrls.bytes_read::.cpu.data         483008                       # Number of bytes read from this memory
system.mem_ctrls.bytes_read::total             585664                       # Number of bytes read from this memory
system.mem_ctrls.bytes_inst_read::.cpu.inst       102656                       # Number of instructions bytes read from this memory
system.mem_ctrls.bytes_inst_read::total        102656                       # Number of instructions bytes read from this memory
system.mem_ctrls.num_reads::.cpu.inst            1604                       # Number of read requests responded to by this memory
system.mem_ctrls.num_reads::.cpu.data            7547                       # Number of read requests responded to by this memory
system.mem_ctrls.num_reads::total                9151                       # Number of read requests responded to by this memory
system.mem_ctrls.bw_read::.cpu.inst          29510069                       # Total read bandwidth from this memory (bytes/s)
system.mem_ctrls.bw_read::.cpu.data         138848189                       # Total read bandwidth from this memory (bytes/s)
system.mem_ctrls.bw_read::total             168358258                       # Total read bandwidth from this memory (bytes/s)
system.mem_ctrls.bw_inst_read::.cpu.inst     29510069                       # Instruction read bandwidth from this memory (bytes/s)
system.mem_ctrls.bw_inst_read::total         29510069                       # Instruction read bandwidth from this memory (bytes/s)
system.mem_ctrls.bw_total::.cpu.inst         29510069                       # Total bandwidth to/from this memory (bytes/s)
system.mem_ctrls.bw_total::.cpu.data        138848189                       # Total bandwidth to/from this memory (bytes/s)
system.mem_ctrls.bw_total::total            168358258                       # Total bandwidth to/from this memory (bytes/s)
system.mem_ctrls.avgPriority_.cpu.inst::samples      1604.00                       # Average QoS priority value for accepted requests
system.mem_ctrls.avgPriority_.cpu.data::samples      7547.00                       # Average QoS priority value for accepted requests
system.mem_ctrls.priorityMinLatency      0.000000018750                       # per QoS priority minimum request to response latency (s)
system.mem_ctrls.priorityMaxLatency      0.000000579500                       # per QoS priority maximum request to response latency (s)
system.mem_ctrls.numReadWriteTurnArounds            0                       # Number of turnarounds from READ to WRITE
system.mem_ctrls.numWriteReadTurnArounds            0                       # Number of turnarounds from WRITE to READ
system.mem_ctrls.numStayReadState               19188                       # Number of times bus staying in READ state
system.mem_ctrls.numStayWriteState                  0                       # Number of times bus staying in WRITE state
system.mem_ctrls.readReqs                        9151                       # Number of read requests accepted
system.mem_ctrls.writeReqs                          0                       # Number of write requests accepted
system.mem_ctrls.readBursts                      9151                       # Number of DRAM read bursts, including those serviced by the write queue
system.mem_ctrls.writeBursts                        0                       # Number of DRAM write bursts, including those merged in the write queue
system.mem_ctrls.servicedByWrQ                      0                       # Number of DRAM read bursts serviced by the write queue
system.mem_ctrls.mergedWrBursts                     0                       # Number of DRAM write bursts merged with an existing one
system.mem_ctrls.neitherReadNorWriteReqs            0                       # Number of requests that are neither read nor write
system.mem_ctrls.perBankRdBursts::0               658                       # Per bank write bursts
system.mem_ctrls.perBankRdBursts::1               492                       # Per bank write bursts
system.mem_ctrls.perBankRdBursts::2               559                       # Per bank write bursts
system.mem_ctrls.perBankRdBursts::3               674                       # Per bank write bursts
system.mem_ctrls.perBankRdBursts::4               665                       # Per bank write bursts
system.mem_ctrls.perBankRdBursts::5               566                       # Per bank write bursts
system.mem_ctrls.perBankRdBursts::6               448                       # Per bank write bursts
system.mem_ctrls.perBankRdBursts::7               384                       # Per bank write bursts
system.mem_ctrls.perBankRdBursts::8               480                       # Per bank write bursts
system.mem_ctrls.perBankRdBursts::9               467                       # Per bank write bursts
system.mem_ctrls.perBankRdBursts::10              434                       # Per bank write bursts
system.mem_ctrls.perBankRdBursts::11              623                       # Per bank write bursts
system.mem_ctrls.perBankRdBursts::12              563                       # Per bank write bursts
system.mem_ctrls.perBankRdBursts::13              651                       # Per bank write bursts
system.mem_ctrls.perBankRdBursts::14              762                       # Per bank write bursts
system.mem_ctrls.perBankRdBursts::15              725                       # Per bank write bursts
system.mem_ctrls.perBankWrBursts::0                 0                       # Per bank write bursts
system.mem_ctrls.perBankWrBursts::1                 0                       # Per bank write bursts
system.mem_ctrls.perBankWrBursts::2                 0                       # Per bank write bursts
system.mem_ctrls.perBankWrBursts::3                 0                       # Per bank write bursts
system.mem_ctrls.perBankWrBursts::4                 0                       # Per bank write bursts
system.mem_ctrls.perBankWrBursts::5                 0                       # Per bank write bursts
system.mem_ctrls.perBankWrBursts::6                 0                       # Per bank write bursts
system.mem_ctrls.perBankWrBursts::7                 0                       # Per bank write bursts
system.mem_ctrls.perBankWrBursts::8                 0                       # Per bank write bursts
system.mem_ctrls.perBankWrBursts::9                 0                       # Per bank write bursts
system.mem_ctrls.perBankWrBursts::10                0                       # Per bank write bursts
system.mem_ctrls.perBankWrBursts::11                0                       # Per bank write bursts
system.mem_ctrls.perBankWrBursts::12                0                       # Per bank write bursts
system.mem_ctrls.perBankWrBursts::13                0                       # Per bank write bursts
system.mem_ctrls.perBankWrBursts::14                0                       # Per bank write bursts
system.mem_ctrls.perBankWrBursts::15                0                       # Per bank write bursts
system.mem_ctrls.avgRdQLen                       1.02                       # Average read queue length when enqueuing
system.mem_ctrls.avgWrQLen                       0.00                       # Average write queue length when enqueuing
system.mem_ctrls.totQLat                     90417250                       # Total ticks spent queuing
system.mem_ctrls.totBusLat                   45755000                       # Total ticks spent in databus transfers
system.mem_ctrls.totMemAccLat               261998500                       # Total ticks spent from burst creation until serviced by the DRAM
system.mem_ctrls.avgQLat                      9880.59                       # Average queueing delay per DRAM burst
system.mem_ctrls.avgBusLat                    5000.00                       # Average bus latency per DRAM burst
system.mem_ctrls.avgMemAccLat                28630.59                       # Average memory access latency per DRAM burst
system.mem_ctrls.numRdRetry                         0                       # Number of times read queue was full causing retry
system.mem_ctrls.numWrRetry                         0                       # Number of times write queue was full causing retry
system.mem_ctrls.readRowHits                     5931                       # Number of row buffer hits during reads
system.mem_ctrls.writeRowHits                       0                       # Number of row buffer hits during writes
system.mem_ctrls.readRowHitRate                 64.81                       # Row buffer hit rate for reads
system.mem_ctrls.writeRowHitRate                  nan                       # Row buffer hit rate for writes
system.mem_ctrls.readPktSize::0                     0                       # Read request sizes (log2)
system.mem_ctrls.readPktSize::1                     0                       # Read request sizes (log2)
system.mem_ctrls.readPktSize::2                     0                       # Read request sizes (log2)
system.mem_ctrls.readPktSize::3                     0                       # Read request sizes (log2)
system.mem_ctrls.readPktSize::4                     0                       # Read request sizes (log2)
system.mem_ctrls.readPktSize::5                     0                       # Read request sizes (log2)
system.mem_ctrls.readPktSize::6                  9151                       # Read request sizes (log2)
system.mem_ctrls.writePktSize::0                    0                       # Write request sizes (log2)
system.mem_ctrls.writePktSize::1                    0                       # Write request sizes (log2)
system.mem_ctrls.writePktSize::2                    0                       # Write request sizes (log2)
system.mem_ctrls.writePktSize::3                    0                       # Write request sizes (log2)
system.mem_ctrls.writePktSize::4                    0                       # Write request sizes (log2)
system.mem_ctrls.writePktSize::5                    0                       # Write request sizes (log2)
system.mem_ctrls.writePktSize::6                    0                       # Write request sizes (log2)
system.mem_ctrls.rdQLenPdf::0                    8666                       # What read queue length does an incoming req see
system.mem_ctrls.rdQLenPdf::1                     473                       # What read queue length does an incoming req see
system.mem_ctrls.rdQLenPdf::2                      12                       # What read queue length does an incoming req see
system.mem_ctrls.rdQLenPdf::3                       0                       # What read queue length does an incoming req see
system.mem_ctrls.rdQLenPdf::4                       0                       # What read queue length does an incoming req see
system.mem_ctrls.rdQLenPdf::5                       0                       # What read queue length does an incoming req see
system.mem_ctrls.rdQLenPdf::6                       0                       # What read queue length does an incoming req see
system.mem_ctrls.rdQLenPdf::7                       0                       # What read queue length does an incoming req see
system.mem_ctrls.rdQLenPdf::8                       0                       # What read queue length does an incoming req see
system.mem_ctrls.rdQLenPdf::9                       0                       # What read queue length does an incoming req see
system.mem_ctrls.rdQLenPdf::10                      0                       # What read queue length does an incoming req see
system.mem_ctrls.rdQLenPdf::11                      0                       # What read queue length does an incoming req see
system.mem_ctrls.rdQLenPdf::12                      0                       # What read queue length does an incoming req see
system.mem_ctrls.rdQLenPdf::13                      0                       # What read queue length does an incoming req see
system.mem_ctrls.rdQLenPdf::14                      0                       # What read queue length does an incoming req see
system.mem_ctrls.rdQLenPdf::15                      0                       # What read queue length does an incoming req see
system.mem_ctrls.rdQLenPdf::16                      0                       # What read queue length does an incoming req see
system.mem_ctrls.rdQLenPdf::17                      0                       # What read queue length does an incoming req see
system.mem_ctrls.rdQLenPdf::18                      0                       # What read queue length does an incoming req see
system.mem_ctrls.rdQLenPdf::19                      0                       # What read queue length does an incoming req see
system.mem_ctrls.rdQLenPdf::20                      0                       # What read queue length does an incoming req see
system.mem_ctrls.rdQLenPdf::21                      0                       # What read queue length does an incoming req see
system.mem_ctrls.rdQLenPdf::22                      0                       # What read queue length does an incoming req see
system.mem_ctrls.rdQLenPdf::23                      0                       # What read queue length does an incoming req see
system.mem_ctrls.rdQLenPdf::24                      0                       # What read queue length does an incoming req see
system.mem_ctrls.rdQLenPdf::25                      0                       # What read queue length does an incoming req see
system.mem_ctrls.rdQLenPdf::26                      0                       # What read queue length does an incoming req see
system.mem_ctrls.rdQLenPdf::27                      0                       # What read queue length does an incoming req see
system.mem_ctrls.rdQLenPdf::28                      0                       # What read queue length does an incoming req see
system.mem_ctrls.rdQLenPdf::29                      0                       # What read queue length does an incoming req see
system.mem_ctrls.rdQLenPdf::30                      0                       # What read queue length does an incoming req see
system.mem_ctrls.rdQLenPdf::31                      0                       # What read queue length does an incoming req see
system.mem_ctrls.wrQLenPdf::0                       0                       # What write queue length does an incoming req see
system.mem_ctrls.wrQLenPdf::1                       0                       # What write queue length does an incoming req see
system.mem_ctrls.wrQLenPdf::2                       0                       # What write queue length does an incoming req see
system.mem_ctrls.wrQLenPdf::3                       0                       # What write queue length does an incoming req see
system.mem_ctrls.wrQLenPdf::4                       0                       # What write queue length does an incoming req see
system.mem_ctrls.wrQLenPdf::5                       0                       # What write queue length does an incoming req see
system.mem_ctrls.wrQLenPdf::6                       0                       # What write queue length does an incoming req see
system.mem_ctrls.wrQLenPdf::7                       0                       # What write queue length does an incoming req see
system.mem_ctrls.wrQLenPdf::8                       0                       # What write queue length does an incoming req see
system.mem_ctrls.wrQLenPdf::9                       0                       # What write queue length does an incoming req see
system.mem_ctrls.wrQLenPdf::10                      0                       # What write queue length does an incoming req see
system.mem_ctrls.wrQLenPdf::11                      0                       # What write queue length does an incoming req see
system.mem_ctrls.wrQLenPdf::12                      0                       # What write queue length does an incoming req see
system.mem_ctrls.wrQLenPdf::13                      0                       # What write queue length does an incoming req see
system.mem_ctrls.wrQLenPdf::14                      0                       # What write queue length does an incoming req see
system.mem_ctrls.wrQLenPdf::15                      0                       # What write queue length does an incoming req see
system.mem_ctrls.wrQLenPdf::16                      0                       # What write queue length does an incoming req see
system.mem_ctrls.wrQLenPdf::17                      0                       # What write queue length does an incoming req see
system.mem_ctrls.wrQLenPdf::18                      0                       # What write queue length does an incoming req see
system.mem_ctrls.wrQLenPdf::19                      0                       # What write queue length does an incoming req see
system.mem_ctrls.wrQLenPdf::20                      0                       # What write queue length does an incoming req see
system.mem_ctrls.wrQLenPdf::21                      0                       # What write queue length does an incoming req see
system.mem_ctrls.wrQLenPdf::22                      0                       # What write queue length does an incoming req see
system.mem_ctrls.wrQLenPdf::23                      0                       # What write queue length does an incoming req see
system.mem_ctrls.wrQLenPdf::24                      0                       # What write queue length does an incoming req see
system.mem_ctrls.wrQLenPdf::25                      0                       # What write queue length does an incoming req see
system.mem_ctrls.wrQLenPdf::26                      0                       # What write queue length does an incoming req see
system.mem_ctrls.wrQLenPdf::27                      0                       # What write queue length does an incoming req see
system.mem_ctrls.wrQLenPdf::28                      0                       # What write queue length does an incoming req see
system.mem_ctrls.wrQLenPdf::29                      0                       # What write queue length does an incoming req see
system.mem_ctrls.wrQLenPdf::30                      0                       # What write queue length does an incoming req see
system.mem_ctrls.wrQLenPdf::31                      0                       # What write queue length does an incoming req see
system.mem_ctrls.wrQLenPdf::32                      0                       # What write queue length does an incoming req see
system.mem_ctrls.wrQLenPdf::33                      0                       # What write queue length does an incoming req see
system.mem_ctrls.wrQLenPdf::34                      0                       # What write queue length does an incoming req see
system.mem_ctrls.wrQLenPdf::35                      0                       # What write queue length does an incoming req see
system.mem_ctrls.wrQLenPdf::36                      0                       # What write queue length does an incoming req see
system.mem_ctrls.wrQLenPdf::37                      0                       # What write queue length does an incoming req see
system.mem_ctrls.wrQLenPdf::38                      0                       # What write queue length does an incoming req see
system.mem_ctrls.wrQLenPdf::39                      0                       # What write queue length does an incoming req see
system.mem_ctrls.wrQLenPdf::40                      0                       # What write queue length does an incoming req see
system.mem_ctrls.wrQLenPdf::41                      0                       # What write queue length does an incoming req see
system.mem_ctrls.wrQLenPdf::42                      0                       # What write queue length does an incoming req see
system.mem_ctrls.wrQLenPdf::43                      0                       # What write queue length does an incoming req see
system.mem_ctrls.wrQLenPdf::44                      0                       # What write queue length does an incoming req see
system.mem_ctrls.wrQLenPdf::45                      0                       # What write queue length does an incoming req see
system.mem_ctrls.wrQLenPdf::46                      0                       # What write queue length does an incoming req see
system.mem_ctrls.wrQLenPdf::47                      0                       # What write queue length does an incoming req see
system.mem_ctrls.wrQLenPdf::48                      0                       # What write queue length does an incoming req see
system.mem_ctrls.wrQLenPdf::49                      0                       # What write queue length does an incoming req see
system.mem_ctrls.wrQLenPdf::50                      0                       # What write queue length does an incoming req see
system.mem_ctrls.wrQLenPdf::51                      0                       # What write queue length does an incoming req see
system.mem_ctrls.wrQLenPdf::52                      0                       # What write queue length does an incoming req see
system.mem_ctrls.wrQLenPdf::53                      0                       # What write queue length does an incoming req see
system.mem_ctrls.wrQLenPdf::54                      0                       # What write queue length does an incoming req see
system.mem_ctrls.wrQLenPdf::55                      0                       # What write queue length does an incoming req see
system.mem_ctrls.wrQLenPdf::56                      0                       # What write queue length does an incoming req see
system.mem_ctrls.wrQLenPdf::57                      0                       # What write queue length does an incoming req see
system.mem_ctrls.wrQLenPdf::58                      0                       # What write queue length does an incoming req see
system.mem_ctrls.wrQLenPdf::59                      0                       # What write queue length does an incoming req see
system.mem_ctrls.wrQLenPdf::60                      0                       # What write queue length does an incoming req see
system.mem_ctrls.wrQLenPdf::61                      0                       # What write queue length does an incoming req see
system.mem_ctrls.wrQLenPdf::62                      0                       # What write queue length does an incoming req see
system.mem_ctrls.wrQLenPdf::63                      0                       # What write queue length does an incoming req see
system.mem_ctrls.bytesPerActivate::samples         3218                       # Bytes accessed per row activation
system.mem_ctrls.bytesPerActivate::mean    181.936607                       # Bytes accessed per row activation
system.mem_ctrls.bytesPerActivate::gmean   119.370729                       # Bytes accessed per row activation
system.mem_ctrls.bytesPerActivate::stdev   227.508555                       # Bytes accessed per row activation
system.mem_ctrls.bytesPerActivate::0-127         1658     51.52%     51.52% # Bytes accessed per row activation
system.mem_ctrls.bytesPerActivate::128-255          945     29.37%     80.89% # Bytes accessed per row activation
system.mem_ctrls.bytesPerActivate::256-383          250      7.77%     88.66% # Bytes accessed per row activation
system.mem_ctrls.bytesPerActivate::384-511           92      2.86%     91.52% # Bytes accessed per row activation
system.mem_ctrls.bytesPerActivate::512-639           59      1.83%     93.35% # Bytes accessed per row activation
system.mem_ctrls.bytesPerActivate::640-767           31      0.96%     94.31% # Bytes accessed per row activation
system.mem_ctrls.bytesPerActivate::768-895           18      0.56%     94.87% # Bytes accessed per row activation
system.mem_ctrls.bytesPerActivate::896-1023           29      0.90%     95.77% # Bytes accessed per row activation
system.mem_ctrls.bytesPerActivate::1024-1151          136      4.23%    100.00% # Bytes accessed per row activation
system.mem_ctrls.bytesPerActivate::total         3218                       # Bytes accessed per row activation
system.mem_ctrls.bytesReadDRAM                 585664                       # Total number of bytes read from DRAM
system.mem_ctrls.bytesReadWrQ                       0                       # Total number of bytes read from write queue
system.mem_ctrls.bytesWritten                       0                       # Total number of bytes written to DRAM
system.mem_ctrls.bytesReadSys                  585664                       # Total read bytes from the system interface side
system.mem_ctrls.bytesWrittenSys                    0                       # Total written bytes from the system interface side
system.mem_ctrls.avgRdBW                       168.36                       # Average DRAM read bandwidth in MiByte/s
system.mem_ctrls.avgWrBW                         0.00                       # Average achieved write bandwidth in MiByte/s
system.mem_ctrls.avgRdBWSys                    168.36                       # Average system read bandwidth in MiByte/s
system.mem_ctrls.avgWrBWSys                      0.00                       # Average system write bandwidth in MiByte/s
system.mem_ctrls.peakBW                      12800.00                       # Theoretical peak bandwidth in MiByte/s
system.mem_ctrls.busUtil                         1.32                       # Data bus utilization in percentage
system.mem_ctrls.busUtilRead                     1.32                       # Data bus utilization in percentage for reads
system.mem_ctrls.busUtilWrite                    0.00                       # Data bus utilization in percentage for writes
system.mem_ctrls.totGap                    3478582500                       # Total gap between requests
system.mem_ctrls.avgGap                     380131.41                       # Average gap between requests
system.mem_ctrls.masterReadBytes::.cpu.inst       102656                       # Per-master bytes read from memory
system.mem_ctrls.masterReadBytes::.cpu.data       483008                       # Per-master bytes read from memory
system.mem_ctrls.masterReadRate::.cpu.inst 29510069.489061504602                       # Per-master bytes read from memory rate (Bytes/sec)
system.mem_ctrls.masterReadRate::.cpu.data 138848188.549842357635                       # Per-master bytes read from memory rate (Bytes/sec)
system.mem_ctrls.masterReadAccesses::.cpu.inst         1604                       # Per-master read serviced memory accesses
system.mem_ctrls.masterReadAccesses::.cpu.data         7547                       # Per-master read serviced memory accesses
system.mem_ctrls.masterReadTotalLat::.cpu.inst     40348750                       # Per-master read total memory access latency
system.mem_ctrls.masterReadTotalLat::.cpu.data    221649750                       # Per-master read total memory access latency
system.mem_ctrls.masterReadAvgLat::.cpu.inst     25155.08                       # Per-master read average memory access latency
system.mem_ctrls.masterReadAvgLat::.cpu.data     29369.25                       # Per-master read average memory access latency
system.mem_ctrls.pageHitRate                    64.81                       # Row buffer hit rate, read and write combined
system.mem_ctrls.rank1.actEnergy             12516420                       # Energy for activate commands per rank (pJ)
system.mem_ctrls.rank1.preEnergy              6648840                       # Energy for precharge commands per rank (pJ)
system.mem_ctrls.rank1.readEnergy            33593700                       # Energy for read commands per rank (pJ)
system.mem_ctrls.rank1.writeEnergy                  0                       # Energy for write commands per rank (pJ)
system.mem_ctrls.rank1.refreshEnergy     274129440.000000                       # Energy for refresh commands per rank (pJ)
system.mem_ctrls.rank1.actBackEnergy       1331840910                       # Energy for active background per rank (pJ)
system.mem_ctrls.rank1.preBackEnergy        214261920                       # Energy for precharge background per rank (pJ)
system.mem_ctrls.rank1.actPowerDownEnergy            0                       # Energy for active power-down per rank (pJ)
system.mem_ctrls.rank1.prePowerDownEnergy            0                       # Energy for precharge power-down per rank (pJ)
system.mem_ctrls.rank1.selfRefreshEnergy            0                       # Energy for self refresh per rank (pJ)
system.mem_ctrls.rank1.totalEnergy         1872991230                       # Total energy per rank (pJ)
system.mem_ctrls.rank1.averagePower        538.420563                       # Core power per rank (mW)
system.mem_ctrls.rank1.totalIdleTime                0                       # Total Idle time Per DRAM Rank
system.mem_ctrls.rank1.memoryStateTime::IDLE    544563250                       # Time in different power states
system.mem_ctrls.rank1.memoryStateTime::REF    115960000                       # Time in different power states
system.mem_ctrls.rank1.memoryStateTime::SREF            0                       # Time in different power states
system.mem_ctrls.rank1.memoryStateTime::PRE_PDN            0                       # Time in different power states
system.mem_ctrls.rank1.memoryStateTime::ACT   2818153750                       # Time in different power states
system.mem_ctrls.rank1.memoryStateTime::ACT_PDN            0                       # Time in different power states
system.mem_ctrls.rank0.actEnergy             10474380                       # Energy for activate commands per rank (pJ)
system.mem_ctrls.rank0.preEnergy              5563470                       # Energy for precharge commands per rank (pJ)
system.mem_ctrls.rank0.readEnergy            31744440                       # Energy for read commands per rank (pJ)
system.mem_ctrls.rank0.writeEnergy                  0                       # Energy for write commands per rank (pJ)
system.mem_ctrls.rank0.refreshEnergy     274129440.000000                       # Energy for refresh commands per rank (pJ)
system.mem_ctrls.rank0.actBackEnergy       1218165240                       # Energy for active background per rank (pJ)
system.mem_ctrls.rank0.preBackEnergy        309988800                       # Energy for precharge background per rank (pJ)
system.mem_ctrls.rank0.actPowerDownEnergy            0                       # Energy for active power-down per rank (pJ)
system.mem_ctrls.rank0.prePowerDownEnergy            0                       # Energy for precharge power-down per rank (pJ)
system.mem_ctrls.rank0.selfRefreshEnergy            0                       # Energy for self refresh per rank (pJ)
system.mem_ctrls.rank0.totalEnergy         1850065770                       # Total energy per rank (pJ)
system.mem_ctrls.rank0.averagePower        531.830282                       # Core power per rank (mW)
system.mem_ctrls.rank0.totalIdleTime                0                       # Total Idle time Per DRAM Rank
system.mem_ctrls.rank0.memoryStateTime::IDLE    794607750                       # Time in different power states
system.mem_ctrls.rank0.memoryStateTime::REF    115960000                       # Time in different power states
system.mem_ctrls.rank0.memoryStateTime::SREF            0                       # Time in different power states
system.mem_ctrls.rank0.memoryStateTime::PRE_PDN            0                       # Time in different power states
system.mem_ctrls.rank0.memoryStateTime::ACT   2568109250                       # Time in different power states
system.mem_ctrls.rank0.memoryStateTime::ACT_PDN            0                       # Time in different power states
system.mem_ctrls.power_state.pwrStateResidencyTicks::UNDEFINED   3478677000                       # Cumulative time (in ticks) in various power states
system.cpu_clk_domain.clock                       500                       # Clock period in ticks
system.cpu.icache.demand_hits::.cpu.inst       514822                       # number of demand (read+write) hits
system.cpu.icache.demand_hits::total           514822                       # number of demand (read+write) hits
system.cpu.icache.overall_hits::.cpu.inst       514822                       # number of overall hits
system.cpu.icache.overall_hits::total          514822                       # number of overall hits
system.cpu.icache.demand_misses::.cpu.inst         1745                       # number of demand (read+write) misses
system.cpu.icache.demand_misses::total           1745                       # number of demand (read+write) misses
system.cpu.icache.overall_misses::.cpu.inst         1745                       # number of overall misses
system.cpu.icache.overall_misses::total          1745                       # number of overall misses
system.cpu.icache.demand_miss_latency::.cpu.inst    127884000                       # number of demand (read+write) miss cycles
system.cpu.icache.demand_miss_latency::total    127884000                       # number of demand (read+write) miss cycles
system.cpu.icache.overall_miss_latency::.cpu.inst    127884000                       # number of overall miss cycles
system.cpu.icache.overall_miss_latency::total    127884000                       # number of overall miss cycles
system.cpu.icache.demand_accesses::.cpu.inst       516567                       # number of demand (read+write) accesses
system.cpu.icache.demand_accesses::total       516567                       # number of demand (read+write) accesses
system.cpu.icache.overall_accesses::.cpu.inst       516567                       # number of overall (read+write) accesses
system.cpu.icache.overall_accesses::total       516567                       # number of overall (read+write) accesses
system.cpu.icache.demand_miss_rate::.cpu.inst     0.003378                       # miss rate for demand accesses
system.cpu.icache.demand_miss_rate::total     0.003378                       # miss rate for demand accesses
system.cpu.icache.overall_miss_rate::.cpu.inst     0.003378                       # miss rate for overall accesses
system.cpu.icache.overall_miss_rate::total     0.003378                       # miss rate for overall accesses
system.cpu.icache.demand_avg_miss_latency::.cpu.inst 73285.959885                       # average overall miss latency
system.cpu.icache.demand_avg_miss_latency::total 73285.959885                       # average overall miss latency
system.cpu.icache.overall_avg_miss_latency::.cpu.inst 73285.959885                       # average overall miss latency
system.cpu.icache.overall_avg_miss_latency::total 73285.959885                       # average overall miss latency
system.cpu.icache.blocked_cycles::no_mshrs            0                       # number of cycles access was blocked
system.cpu.icache.blocked_cycles::no_targets            0                       # number of cycles access was blocked
system.cpu.icache.blocked::no_mshrs                 0                       # number of cycles access was blocked
system.cpu.icache.blocked::no_targets               0                       # number of cycles access was blocked
system.cpu.icache.avg_blocked_cycles::no_mshrs          nan                       # average number of cycles each access was blocked
system.cpu.icache.avg_blocked_cycles::no_targets          nan                       # average number of cycles each access was blocked
system.cpu.icache.writebacks::.writebacks         1232                       # number of writebacks
system.cpu.icache.writebacks::total              1232                       # number of writebacks
system.cpu.icache.demand_mshr_misses::.cpu.inst         1745                       # number of demand (read+write) MSHR misses
system.cpu.icache.demand_mshr_misses::total         1745                       # number of demand (read+write) MSHR misses
system.cpu.icache.overall_mshr_misses::.cpu.inst         1745                       # number of overall MSHR misses
system.cpu.icache.overall_mshr_misses::total         1745                       # number of overall MSHR misses
system.cpu.icache.demand_mshr_miss_latency::.cpu.inst    126140000                       # number of demand (read+write) MSHR miss cycles
system.cpu.icache.demand_mshr_miss_latency::total    126140000                       # number of demand (read+write) MSHR miss cycles
system.cpu.icache.overall_mshr_miss_latency::.cpu.inst    126140000                       # number of overall MSHR miss cycles
system.cpu.icache.overall_mshr_miss_latency::total    126140000                       # number of overall MSHR miss cycles
system.cpu.icache.demand_mshr_miss_rate::.cpu.inst     0.003378                       # mshr miss rate for demand accesses
system.cpu.icache.demand_mshr_miss_rate::total     0.003378                       # mshr miss rate for demand accesses
system.cpu.icache.overall_mshr_miss_rate::.cpu.inst     0.003378                       # mshr miss rate for overall accesses
system.cpu.icache.overall_mshr_miss_rate::total     0.003378                       # mshr miss rate for overall accesses
system.cpu.icache.demand_avg_mshr_miss_latency::.cpu.inst 72286.532951                       # average overall mshr miss latency
system.cpu.icache.demand_avg_mshr_miss_latency::total 72286.532951                       # average overall mshr miss latency
system.cpu.icache.overall_avg_mshr_miss_latency::.cpu.inst 72286.532951                       # average overall mshr miss latency
system.cpu.icache.overall_avg_mshr_miss_latency::total 72286.532951                       # average overall mshr miss latency
system.cpu.icache.replacements                   1232                       # number of replacements
system.cpu.icache.ReadReq_hits::.cpu.inst       514822                       # number of ReadReq hits
system.cpu.icache.ReadReq_hits::total          514822                       # number of ReadReq hits
system.cpu.icache.ReadReq_misses::.cpu.inst         1745                       # number of ReadReq misses
system.cpu.icache.ReadReq_misses::total          1745                       # number of ReadReq misses
system.cpu.icache.ReadReq_miss_latency::.cpu.inst    127884000                       # number of ReadReq miss cycles
system.cpu.icache.ReadReq_miss_latency::total    127884000                       # number of ReadReq miss cycles
system.cpu.icache.ReadReq_accesses::.cpu.inst       516567                       # number of ReadReq accesses(hits+misses)
system.cpu.icache.ReadReq_accesses::total       516567                       # number of ReadReq accesses(hits+misses)
system.cpu.icache.ReadReq_miss_rate::.cpu.inst     0.003378                       # miss rate for ReadReq accesses
system.cpu.icache.ReadReq_miss_rate::total     0.003378                       # miss rate for ReadReq accesses
system.cpu.icache.ReadReq_avg_miss_latency::.cpu.inst 73285.959885                       # average ReadReq miss latency
system.cpu.icache.ReadReq_avg_miss_latency::total 73285.959885                       # average ReadReq miss latency
system.cpu.icache.ReadReq_mshr_misses::.cpu.inst         1745                       # number of ReadReq MSHR misses
system.cpu.icache.ReadReq_mshr_misses::total         1745                       # number of ReadReq MSHR misses
system.cpu.icache.ReadReq_mshr_miss_latency::.cpu.inst    126140000                       # number of ReadReq MSHR miss cycles
system.cpu.icache.ReadReq_mshr_miss_latency::total    126140000                       # number of ReadReq MSHR miss cycles
system.cpu.icache.ReadReq_mshr_miss_rate::.cpu.inst     0.003378                       # mshr miss rate for ReadReq accesses
system.cpu.icache.ReadReq_mshr_miss_rate::total     0.003378                       # mshr miss rate for ReadReq accesses
system.cpu.icache.ReadReq_avg_mshr_miss_latency::.cpu.inst 72286.532951                       # average ReadReq mshr miss latency
system.cpu.icache.ReadReq_avg_mshr_miss_latency::total 72286.532951                       # average ReadReq mshr miss latency
system.cpu.icache.power_state.pwrStateResidencyTicks::UNDEFINED   3478677000                       # Cumulative time (in ticks) in various power states
system.cpu.icache.tags.tagsinuse           470.086337                       # Cycle average of tags in use
system.cpu.icache.tags.total_refs              186452                       # Total number of references to valid blocks.
system.cpu.icache.tags.sampled_refs              1232                       # Sample count of references to valid blocks.
system.cpu.icache.tags.avg_refs            151.340909                       # Average number of references to valid blocks.
system.cpu.icache.tags.warmup_cycle             87500                       # Cycle when the warmup percentage was hit.
system.cpu.icache.tags.occ_blocks::.cpu.inst   470.086337                       # Average occupied blocks per requestor
[...]
system.cpu.icache.tags.total_refs              343675                       # Total number of references to valid blocks.
system.cpu.icache.tags.sampled_refs              1183                       # Sample count of references to valid blocks.
system.cpu.icache.tags.avg_refs            290.511412                       # Average number of references to valid blocks.
system.cpu.icache.tags.warmup_cycle                 0                       # Cycle when the warmup percentage was hit.
system.cpu.icache.tags.occ_blocks::.cpu.inst          512                       # Average occupied blocks per requestor
system.cpu.icache.tags.occ_percent::.cpu.inst            1                       # Average percentage of cache occupancy
system.cpu.icache.tags.occ_percent::total            1                       # Average percentage of cache occupancy
system.cpu.icache.tags.occ_task_id_blocks::1024          512                       # Occupied blocks per task id
system.cpu.icache.tags.age_task_id_blocks_1024::0           86                       # Occupied blocks per task id
system.cpu.icache.tags.age_task_id_blocks_1024::1          304                       # Occupied blocks per task id
system.cpu.icache.tags.age_task_id_blocks_1024::2           91                       # Occupied blocks per task id
system.cpu.icache.tags.age_task_id_blocks_1024::3           31                       # Occupied blocks per task id
system.cpu.icache.tags.occ_task_id_percent::1024            1                       # Percentage of cache occupancy per task id
system.cpu.icache.tags.tag_accesses             19795                       # Number of tag accesses
system.cpu.icache.tags.data_accesses            19795                       # Number of data accesses
system.cpu.icache.tags.power_state.pwrStateResidencyTicks::UNDEFINED    102909500                       # Cumulative time (in ticks) in various power states
system.cpu.dtb.walker.power_state.pwrStateResidencyTicks::UNDEFINED    102909500                       # Cumulative time (in ticks) in various power states
system.cpu.interrupts.clk_domain.clock           8000                       # Clock period in ticks
system.cpu.itb_walker_cache.blocked_cycles::no_mshrs            0                       # number of cycles access was blocked
system.cpu.itb_walker_cache.blocked_cycles::no_targets            0                       # number of cycles access was blocked
system.cpu.itb_walker_cache.blocked::no_mshrs            0                       # number of cycles access was blocked
system.cpu.itb_walker_cache.blocked::no_targets            0                       # number of cycles access was blocked
system.cpu.itb_walker_cache.avg_blocked_cycles::no_mshrs          nan                       # average number of cycles each access was blocked
system.cpu.itb_walker_cache.avg_blocked_cycles::no_targets          nan                       # average number of cycles each access was blocked
system.cpu.itb_walker_cache.replacements            0                       # number of replacements
system.cpu.itb_walker_cache.power_state.pwrStateResidencyTicks::UNDEFINED    102909500                       # Cumulative time (in ticks) in various power states
system.cpu.itb_walker_cache.tags.tagsinuse            0                       # Cycle average of tags in use
system.cpu.itb_walker_cache.tags.total_refs            0                       # Total number of references to valid blocks.
system.cpu.itb_walker_cache.tags.sampled_refs            0                       # Sample count of references to valid blocks.
system.cpu.itb_walker_cache.tags.avg_refs          nan                       # Average number of references to valid blocks.
system.cpu.itb_walker_cache.tags.warmup_cycle            0                       # Cycle when the warmup percentage was hit.
system.cpu.itb_walker_cache.tags.tag_accesses            0                       # Number of tag accesses
system.cpu.itb_walker_cache.tags.data_accesses            0                       # Number of data accesses
system.cpu.itb_walker_cache.tags.power_state.pwrStateResidencyTicks::UNDEFINED    102909500                       # Cumulative time (in ticks) in various power states
system.cpu.dtb_walker_cache.blocked_cycles::no_mshrs            0                       # number of cycles access was blocked
system.cpu.dtb_walker_cache.blocked_cycles::no_targets            0                       # number of cycles access was blocked
system.cpu.dtb_walker_cache.blocked::no_mshrs            0                       # number of cycles access was blocked
system.cpu.dtb_walker_cache.blocked::no_targets            0                       # number of cycles access was blocked
system.cpu.dtb_walker_cache.avg_blocked_cycles::no_mshrs          nan                       # average number of cycles each access was blocked
system.cpu.dtb_walker_cache.avg_blocked_cycles::no_targets          nan                       # average number of cycles each access was blocked
system.cpu.dtb_walker_cache.replacements            0                       # number of replacements
system.cpu.dtb_walker_cache.power_state.pwrStateResidencyTicks::UNDEFINED    102909500                       # Cumulative time (in ticks) in various power states
system.cpu.dtb_walker_cache.tags.tagsinuse            0                       # Cycle average of tags in use
system.cpu.dtb_walker_cache.tags.total_refs            0                       # Total number of references to valid blocks.
system.cpu.dtb_walker_cache.tags.sampled_refs            0                       # Sample count of references to valid blocks.
system.cpu.dtb_walker_cache.tags.avg_refs          nan                       # Average number of references to valid blocks.
system.cpu.dtb_walker_cache.tags.warmup_cycle            0                       # Cycle when the warmup percentage was hit.
system.cpu.dtb_walker_cache.tags.tag_accesses            0                       # Number of tag accesses
system.cpu.dtb_walker_cache.tags.data_accesses            0                       # Number of data accesses
system.cpu.dtb_walker_cache.tags.power_state.pwrStateResidencyTicks::UNDEFINED    102909500                       # Cumulative time (in ticks) in various power states
system.cpu.dcache.demand_hits::.cpu.data        11914                       # number of demand (read+write) hits
system.cpu.dcache.demand_hits::total            11914                       # number of demand (read+write) hits
system.cpu.dcache.overall_hits::.cpu.data        11914                       # number of overall hits
system.cpu.dcache.overall_hits::total           11914                       # number of overall hits
system.cpu.dcache.demand_misses::.cpu.data          392                       # number of demand (read+write) misses
system.cpu.dcache.demand_misses::total            392                       # number of demand (read+write) misses
system.cpu.dcache.overall_misses::.cpu.data          392                       # number of overall misses
system.cpu.dcache.overall_misses::total           392                       # number of overall misses
system.cpu.dcache.demand_miss_latency::.cpu.data     10432500                       # number of demand (read+write) miss cycles
system.cpu.dcache.demand_miss_latency::total     10432500                       # number of demand (read+write) miss cycles
system.cpu.dcache.overall_miss_latency::.cpu.data     10432500                       # number of overall miss cycles
system.cpu.dcache.overall_miss_latency::total     10432500                       # number of overall miss cycles
system.cpu.dcache.demand_accesses::.cpu.data        12306                       # number of demand (read+write) accesses
system.cpu.dcache.demand_accesses::total        12306                       # number of demand (read+write) accesses
system.cpu.dcache.overall_accesses::.cpu.data        12306                       # number of overall (read+write) accesses
system.cpu.dcache.overall_accesses::total        12306                       # number of overall (read+write) accesses
system.cpu.dcache.demand_miss_rate::.cpu.data     0.031854                       # miss rate for demand accesses
system.cpu.dcache.demand_miss_rate::total     0.031854                       # miss rate for demand accesses
system.cpu.dcache.overall_miss_rate::.cpu.data     0.031854                       # miss rate for overall accesses
system.cpu.dcache.overall_miss_rate::total     0.031854                       # miss rate for overall accesses
system.cpu.dcache.demand_avg_miss_latency::.cpu.data 26613.520408                       # average overall miss latency
system.cpu.dcache.demand_avg_miss_latency::total 26613.520408                       # average overall miss latency
system.cpu.dcache.overall_avg_miss_latency::.cpu.data 26613.520408                       # average overall miss latency
system.cpu.dcache.overall_avg_miss_latency::total 26613.520408                       # average overall miss latency
system.cpu.dcache.blocked_cycles::no_mshrs            0                       # number of cycles access was blocked
system.cpu.dcache.blocked_cycles::no_targets            0                       # number of cycles access was blocked
system.cpu.dcache.blocked::no_mshrs                 0                       # number of cycles access was blocked
system.cpu.dcache.blocked::no_targets               0                       # number of cycles access was blocked
system.cpu.dcache.avg_blocked_cycles::no_mshrs          nan                       # average number of cycles each access was blocked
system.cpu.dcache.avg_blocked_cycles::no_targets          nan                       # average number of cycles each access was blocked
system.cpu.dcache.writebacks::.writebacks          147                       # number of writebacks
system.cpu.dcache.writebacks::total               147                       # number of writebacks
system.cpu.dcache.demand_mshr_hits::.cpu.data           20                       # number of demand (read+write) MSHR hits
system.cpu.dcache.demand_mshr_hits::total           20                       # number of demand (read+write) MSHR hits
system.cpu.dcache.overall_mshr_hits::.cpu.data           20                       # number of overall MSHR hits
system.cpu.dcache.overall_mshr_hits::total           20                       # number of overall MSHR hits
system.cpu.dcache.demand_mshr_misses::.cpu.data          372                       # number of demand (read+write) MSHR misses
system.cpu.dcache.demand_mshr_misses::total          372                       # number of demand (read+write) MSHR misses
system.cpu.dcache.overall_mshr_misses::.cpu.data          372                       # number of overall MSHR misses
system.cpu.dcache.overall_mshr_misses::total          372                       # number of overall MSHR misses
system.cpu.dcache.demand_mshr_miss_latency::.cpu.data      9232000                       # number of demand (read+write) MSHR miss cycles
system.cpu.dcache.demand_mshr_miss_latency::total      9232000                       # number of demand (read+write) MSHR miss cycles
system.cpu.dcache.overall_mshr_miss_latency::.cpu.data      9232000                       # number of overall MSHR miss cycles
system.cpu.dcache.overall_mshr_miss_latency::total      9232000                       # number of overall MSHR miss cycles
system.cpu.dcache.demand_mshr_miss_rate::.cpu.data     0.030229                       # mshr miss rate for demand accesses
system.cpu.dcache.demand_mshr_miss_rate::total     0.030229                       # mshr miss rate for demand accesses
system.cpu.dcache.overall_mshr_miss_rate::.cpu.data     0.030229                       # mshr miss rate for overall accesses
system.cpu.dcache.overall_mshr_miss_rate::total     0.030229                       # mshr miss rate for overall accesses
system.cpu.dcache.demand_avg_mshr_miss_latency::.cpu.data 24817.204301                       # average overall mshr miss latency
system.cpu.dcache.demand_avg_mshr_miss_latency::total 24817.204301                       # average overall mshr miss latency
system.cpu.dcache.overall_avg_mshr_miss_latency::.cpu.data 24817.204301                       # average overall mshr miss latency
system.cpu.dcache.overall_avg_mshr_miss_latency::total 24817.204301                       # average overall mshr miss latency
system.cpu.dcache.replacements                    372                       # number of replacements
system.cpu.dcache.ReadReq_hits::.cpu.data         8186                       # number of ReadReq hits
system.cpu.dcache.ReadReq_hits::total            8186                       # number of ReadReq hits
system.cpu.dcache.ReadReq_misses::.cpu.data          328                       # number of ReadReq misses
system.cpu.dcache.ReadReq_misses::total           328                       # number of ReadReq misses
system.cpu.dcache.ReadReq_miss_latency::.cpu.data      7276500                       # number of ReadReq miss cycles
system.cpu.dcache.ReadReq_miss_latency::total      7276500                       # number of ReadReq miss cycles
system.cpu.dcache.ReadReq_accesses::.cpu.data         8514                       # number of ReadReq accesses(hits+misses)
system.cpu.dcache.ReadReq_accesses::total         8514                       # number of ReadReq accesses(hits+misses)
system.cpu.dcache.ReadReq_miss_rate::.cpu.data     0.038525                       # miss rate for ReadReq accesses
system.cpu.dcache.ReadReq_miss_rate::total     0.038525                       # miss rate for ReadReq accesses
system.cpu.dcache.ReadReq_avg_miss_latency::.cpu.data 22184.451220                       # average ReadReq miss latency
system.cpu.dcache.ReadReq_avg_miss_latency::total 22184.451220                       # average ReadReq miss latency
system.cpu.dcache.ReadReq_mshr_misses::.cpu.data          328                       # number of ReadReq MSHR misses
system.cpu.dcache.ReadReq_mshr_misses::total          328                       # number of ReadReq MSHR misses
system.cpu.dcache.ReadReq_mshr_miss_latency::.cpu.data      6948500                       # number of ReadReq MSHR miss cycles
system.cpu.dcache.ReadReq_mshr_miss_latency::total      6948500                       # number of ReadReq MSHR miss cycles
system.cpu.dcache.ReadReq_mshr_miss_rate::.cpu.data     0.038525                       # mshr miss rate for ReadReq accesses
system.cpu.dcache.ReadReq_mshr_miss_rate::total     0.038525                       # mshr miss rate for ReadReq accesses
system.cpu.dcache.ReadReq_avg_mshr_miss_latency::.cpu.data 21184.451220                       # average ReadReq mshr miss latency
system.cpu.dcache.ReadReq_avg_mshr_miss_latency::total 21184.451220                       # average ReadReq mshr miss latency
system.cpu.dcache.WriteReq_hits::.cpu.data         3728                       # number of WriteReq hits
system.cpu.dcache.WriteReq_hits::total           3728                       # number of WriteReq hits
system.cpu.dcache.WriteReq_misses::.cpu.data           64                       # number of WriteReq misses
system.cpu.dcache.WriteReq_misses::total           64                       # number of WriteReq misses
system.cpu.dcache.WriteReq_miss_latency::.cpu.data      3156000                       # number of WriteReq miss cycles
system.cpu.dcache.WriteReq_miss_latency::total      3156000                       # number of WriteReq miss cycles
system.cpu.dcache.WriteReq_accesses::.cpu.data         3792                       # number of WriteReq accesses(hits+misses)
system.cpu.dcache.WriteReq_accesses::total         3792                       # number of WriteReq accesses(hits+misses)
system.cpu.dcache.WriteReq_miss_rate::.cpu.data     0.016878                       # miss rate for WriteReq accesses
system.cpu.dcache.WriteReq_miss_rate::total     0.016878                       # miss rate for WriteReq accesses
system.cpu.dcache.WriteReq_avg_miss_latency::.cpu.data 49312.500000                       # average WriteReq miss latency
system.cpu.dcache.WriteReq_avg_miss_latency::total 49312.500000                       # average WriteReq miss latency
system.cpu.dcache.WriteReq_mshr_hits::.cpu.data           20                       # number of WriteReq MSHR hits
system.cpu.dcache.WriteReq_mshr_hits::total           20                       # number of WriteReq MSHR hits
system.cpu.dcache.WriteReq_mshr_misses::.cpu.data           44                       # number of WriteReq MSHR misses
system.cpu.dcache.WriteReq_mshr_misses::total           44                       # number of WriteReq MSHR misses
system.cpu.dcache.WriteReq_mshr_miss_latency::.cpu.data      2283500                       # number of WriteReq MSHR miss cycles
system.cpu.dcache.WriteReq_mshr_miss_latency::total      2283500                       # number of WriteReq MSHR miss cycles
system.cpu.dcache.WriteReq_mshr_miss_rate::.cpu.data     0.011603                       # mshr miss rate for WriteReq accesses
system.cpu.dcache.WriteReq_mshr_miss_rate::total     0.011603                       # mshr miss rate for WriteReq accesses
system.cpu.dcache.WriteReq_avg_mshr_miss_latency::.cpu.data 51897.727273                       # average WriteReq mshr miss latency
system.cpu.dcache.WriteReq_avg_mshr_miss_latency::total 51897.727273                       # average WriteReq mshr miss latency
system.cpu.dcache.power_state.pwrStateResidencyTicks::UNDEFINED    102909500                       # Cumulative time (in ticks) in various power states
system.cpu.dcache.tags.tagsinuse                 1024                       # Cycle average of tags in use
system.cpu.dcache.tags.total_refs              110405                       # Total number of references to valid blocks.
system.cpu.dcache.tags.sampled_refs              1396                       # Sample count of references to valid blocks.
system.cpu.dcache.tags.avg_refs             79.086676                       # Average number of references to valid blocks.
system.cpu.dcache.tags.warmup_cycle                 0                       # Cycle when the warmup percentage was hit.
system.cpu.dcache.tags.occ_blocks::.cpu.data         1024                       # Average occupied blocks per requestor
system.cpu.dcache.tags.occ_percent::.cpu.data            1                       # Average percentage of cache occupancy
system.cpu.dcache.tags.occ_percent::total            1                       # Average percentage of cache occupancy
system.cpu.dcache.tags.occ_task_id_blocks::1024         1024                       # Occupied blocks per task id
system.cpu.dcache.tags.age_task_id_blocks_1024::0           53                       # Occupied blocks per task id
system.cpu.dcache.tags.age_task_id_blocks_1024::1          266                       # Occupied blocks per task id
system.cpu.dcache.tags.age_task_id_blocks_1024::2          692                       # Occupied blocks per task id
system.cpu.dcache.tags.age_task_id_blocks_1024::3           13                       # Occupied blocks per task id
system.cpu.dcache.tags.occ_task_id_percent::1024            1                       # Percentage of cache occupancy per task id
system.cpu.dcache.tags.tag_accesses             24984                       # Number of tag accesses
system.cpu.dcache.tags.data_accesses            24984                       # Number of data accesses
system.cpu.dcache.tags.power_state.pwrStateResidencyTicks::UNDEFINED    102909500                       # Cumulative time (in ticks) in various power states
system.cpu.power_state.pwrStateResidencyTicks::ON    102909500                       # Cumulative time (in ticks) in various power states
system.cpu.itb.walker.power_state.pwrStateResidencyTicks::UNDEFINED    102909500                       # Cumulative time (in ticks) in various power states

---------- End Simulation Statistics   ----------
