
---------- Begin Simulation Statistics ----------
final_tick                               189780424000                       # Number of ticks from beginning of simulation (restored from checkpoints and never reset)
host_inst_rate                                 151247                       # Simulator instruction rate (inst/s)
host_mem_usage                                 851856                       # Number of bytes of host memory used
host_op_rate                                   154008                       # Simulator op (including micro ops) rate (op/s)
host_seconds                                   661.17                       # Real time elapsed on the host
host_tick_rate                              287036492                       # Simulator tick rate (ticks/s)
sim_freq                                 1000000000000                       # Frequency of simulated ticks
sim_insts                                   100000000                       # Number of instructions simulated
sim_ops                                     101825745                       # Number of ops (including micro ops) simulated
sim_seconds                                  0.189780                       # Number of seconds simulated
sim_ticks                                189780424000                       # Number of ticks simulated
system.cpu.branchPred.BTBCorrect                    0                       # Number of correct BTB predictions (this stat may not work properly.
system.cpu.branchPred.BTBHitPct                   nan                       # BTB Hit Percentage
system.cpu.branchPred.BTBHits                       0                       # Number of BTB hits
system.cpu.branchPred.BTBLookups                    0                       # Number of BTB lookups
system.cpu.branchPred.RASInCorrect                  0                       # Number of incorrect RAS predictions.
system.cpu.branchPred.condIncorrect                 0                       # Number of conditional branches incorrect
system.cpu.branchPred.condPredicted                 0                       # Number of conditional branches predicted
system.cpu.branchPred.condPredictedNotTaken            0                       # RE: number of conditional branches predicted not taken
system.cpu.branchPred.condPredictedTaken            0                       # RE: Number of conditional branches predicted taken
system.cpu.branchPred.indirectHits                  0                       # Number of indirect target hits.
system.cpu.branchPred.indirectLookups               0                       # Number of indirect predictor lookups.
system.cpu.branchPred.indirectMisses                0                       # Number of indirect misses.
system.cpu.branchPred.lookups                       0                       # Number of BP lookups
system.cpu.branchPred.uncondPredicted               0                       # RE: number of unconditional branches
system.cpu.branchPred.usedRAS                       0                       # Number of times the RAS was used to get a target.
system.cpu.branchPredindirectMispredicted            0                       # Number of mispredicted indirect branches.
system.cpu.committedInsts                   100000000                       # Number of instructions committed
system.cpu.committedOps                     101825745                       # Number of ops (including micro ops) committed
system.cpu.cpi                               3.795608                       # CPI: cycles per instruction
system.cpu.discardedOps                      28805313                       # Number of ops (including micro ops) which were discarded before commit
system.cpu.dtb.accesses                             0                       # DTB accesses
system.cpu.dtb.align_faults                         0                       # Number of TLB faults due to alignment restrictions
system.cpu.dtb.domain_faults                        0                       # Number of TLB faults due to domain restrictions
system.cpu.dtb.flush_entries                        0                       # Number of entries that have been flushed from TLB
system.cpu.dtb.flush_tlb                            0                       # Number of times complete TLB was flushed
system.cpu.dtb.flush_tlb_asid                       0                       # Number of times TLB was flushed by ASID
system.cpu.dtb.flush_tlb_mva                        0                       # Number of times TLB was flushed by MVA
system.cpu.dtb.flush_tlb_mva_asid                   0                       # Number of times TLB was flushed by MVA & ASID
system.cpu.dtb.hits                                 0                       # DTB hits
system.cpu.dtb.inst_accesses                        0                       # ITB inst accesses
system.cpu.dtb.inst_hits                            0                       # ITB inst hits
system.cpu.dtb.inst_misses                          0                       # ITB inst misses
system.cpu.dtb.misses                               0                       # DTB misses
system.cpu.dtb.perms_faults                         0                       # Number of TLB faults due to permissions restrictions
system.cpu.dtb.prefetch_faults                      0                       # Number of TLB faults due to prefetch
system.cpu.dtb.read_accesses                        0                       # DTB read accesses
system.cpu.dtb.read_hits                            0                       # DTB read hits
system.cpu.dtb.read_misses                          0                       # DTB read misses
system.cpu.dtb.stage2_mmu.stage2_tlb.accesses            0                       # DTB accesses
system.cpu.dtb.stage2_mmu.stage2_tlb.align_faults            0                       # Number of TLB faults due to alignment restrictions
system.cpu.dtb.stage2_mmu.stage2_tlb.domain_faults            0                       # Number of TLB faults due to domain restrictions
system.cpu.dtb.stage2_mmu.stage2_tlb.flush_entries            0                       # Number of entries that have been flushed from TLB
system.cpu.dtb.stage2_mmu.stage2_tlb.flush_tlb            0                       # Number of times complete TLB was flushed
system.cpu.dtb.stage2_mmu.stage2_tlb.flush_tlb_asid            0                       # Number of times TLB was flushed by ASID
system.cpu.dtb.stage2_mmu.stage2_tlb.flush_tlb_mva            0                       # Number of times TLB was flushed by MVA
system.cpu.dtb.stage2_mmu.stage2_tlb.flush_tlb_mva_asid            0                       # Number of times TLB was flushed by MVA & ASID
system.cpu.dtb.stage2_mmu.stage2_tlb.hits            0                       # DTB hits
system.cpu.dtb.stage2_mmu.stage2_tlb.inst_accesses            0                       # ITB inst accesses
system.cpu.dtb.stage2_mmu.stage2_tlb.inst_hits            0                       # ITB inst hits
system.cpu.dtb.stage2_mmu.stage2_tlb.inst_misses            0                       # ITB inst misses
system.cpu.dtb.stage2_mmu.stage2_tlb.misses            0                       # DTB misses
system.cpu.dtb.stage2_mmu.stage2_tlb.perms_faults            0                       # Number of TLB faults due to permissions restrictions
system.cpu.dtb.stage2_mmu.stage2_tlb.prefetch_faults            0                       # Number of TLB faults due to prefetch
system.cpu.dtb.stage2_mmu.stage2_tlb.read_accesses            0                       # DTB read accesses
system.cpu.dtb.stage2_mmu.stage2_tlb.read_hits            0                       # DTB read hits
system.cpu.dtb.stage2_mmu.stage2_tlb.read_misses            0                       # DTB read misses
system.cpu.dtb.stage2_mmu.stage2_tlb.walker.walkRequestOrigin_Requested::Data            0                       # Table walker requests started/completed, data/inst
system.cpu.dtb.stage2_mmu.stage2_tlb.walker.walkRequestOrigin_Requested::Inst            0                       # Table walker requests started/completed, data/inst
system.cpu.dtb.stage2_mmu.stage2_tlb.walker.walkRequestOrigin_Requested::total            0                       # Table walker requests started/completed, data/inst
system.cpu.dtb.stage2_mmu.stage2_tlb.walker.walkRequestOrigin_Completed::Data            0                       # Table walker requests started/completed, data/inst
system.cpu.dtb.stage2_mmu.stage2_tlb.walker.walkRequestOrigin_Completed::Inst            0                       # Table walker requests started/completed, data/inst
system.cpu.dtb.stage2_mmu.stage2_tlb.walker.walkRequestOrigin_Completed::total            0                       # Table walker requests started/completed, data/inst
system.cpu.dtb.stage2_mmu.stage2_tlb.walker.walkRequestOrigin::total            0                       # Table walker requests started/completed, data/inst
system.cpu.dtb.stage2_mmu.stage2_tlb.walker.walks            0                       # Table walker walks requested
system.cpu.dtb.stage2_mmu.stage2_tlb.write_accesses            0                       # DTB write accesses
system.cpu.dtb.stage2_mmu.stage2_tlb.write_hits            0                       # DTB write hits
system.cpu.dtb.stage2_mmu.stage2_tlb.write_misses            0                       # DTB write misses
system.cpu.dtb.walker.walkRequestOrigin_Requested::Data            0                       # Table walker requests started/completed, data/inst
system.cpu.dtb.walker.walkRequestOrigin_Requested::Inst            0                       # Table walker requests started/completed, data/inst
system.cpu.dtb.walker.walkRequestOrigin_Requested::total            0                       # Table walker requests started/completed, data/inst
system.cpu.dtb.walker.walkRequestOrigin_Completed::Data            0                       # Table walker requests started/completed, data/inst
system.cpu.dtb.walker.walkRequestOrigin_Completed::Inst            0                       # Table walker requests started/completed, data/inst
system.cpu.dtb.walker.walkRequestOrigin_Completed::total            0                       # Table walker requests started/completed, data/inst
system.cpu.dtb.walker.walkRequestOrigin::total            0                       # Table walker requests started/completed, data/inst
system.cpu.dtb.walker.walks                         0                       # Table walker walks requested
system.cpu.dtb.write_accesses                       0                       # DTB write accesses
system.cpu.dtb.write_hits                           0                       # DTB write hits
system.cpu.dtb.write_misses                         0                       # DTB write misses
system.cpu.fetch1.degraded_predictions              0                       # RE: Number of predictions degraded
system.cpu.fetch1.other_incorrect_predictions      9175225                       # RE: Number of other incorrect predictions
system.cpu.fetch2.amo_instructions                  0                       # Number of memory atomic instructions successfully decoded
system.cpu.fetch2.correct_branch_predictions            0                       # RE: Number of correct predictions
system.cpu.fetch2.degraded_branch_predictions            0                       # RE: Number of flipped predictions
system.cpu.fetch2.fp_instructions                   0                       # Number of floating point instructions successfully decoded
system.cpu.fetch2.incorrect_branch_predictions            0                       # RE: Number of incorrect predictions
system.cpu.fetch2.int_instructions          113000809                       # Number of integer instructions successfully decoded
system.cpu.fetch2.load_instructions          52043510                       # Number of memory load instructions successfully decoded
system.cpu.fetch2.no_branch_predictions             0                       # RE: no branch case
system.cpu.fetch2.not_taken_branch_predictions            0                       # RE: Number of not taken branch predictions
system.cpu.fetch2.store_instructions         19209033                       # Number of memory store instructions successfully decoded
system.cpu.fetch2.taken_branch_predictions            0                       # RE: Number of taken branch predictions
system.cpu.fetch2.vec_instructions                159                       # Number of SIMD instructions successfully decoded
system.cpu.idleCycles                        39211016                       # Total number of cycles that the object has spent stopped
system.cpu.ipc                               0.263462                       # IPC: instructions per cycle
system.cpu.itb.accesses                             0                       # DTB accesses
system.cpu.itb.align_faults                         0                       # Number of TLB faults due to alignment restrictions
system.cpu.itb.domain_faults                        0                       # Number of TLB faults due to domain restrictions
system.cpu.itb.flush_entries                        0                       # Number of entries that have been flushed from TLB
system.cpu.itb.flush_tlb                            0                       # Number of times complete TLB was flushed
system.cpu.itb.flush_tlb_asid                       0                       # Number of times TLB was flushed by ASID
system.cpu.itb.flush_tlb_mva                        0                       # Number of times TLB was flushed by MVA
system.cpu.itb.flush_tlb_mva_asid                   0                       # Number of times TLB was flushed by MVA & ASID
system.cpu.itb.hits                                 0                       # DTB hits
system.cpu.itb.inst_accesses                        0                       # ITB inst accesses
system.cpu.itb.inst_hits                            0                       # ITB inst hits
system.cpu.itb.inst_misses                          0                       # ITB inst misses
system.cpu.itb.misses                               0                       # DTB misses
system.cpu.itb.perms_faults                         0                       # Number of TLB faults due to permissions restrictions
system.cpu.itb.prefetch_faults                      0                       # Number of TLB faults due to prefetch
system.cpu.itb.read_accesses                        0                       # DTB read accesses
system.cpu.itb.read_hits                            0                       # DTB read hits
system.cpu.itb.read_misses                          0                       # DTB read misses
system.cpu.itb.stage2_mmu.stage2_tlb.accesses            0                       # DTB accesses
system.cpu.itb.stage2_mmu.stage2_tlb.align_faults            0                       # Number of TLB faults due to alignment restrictions
system.cpu.itb.stage2_mmu.stage2_tlb.domain_faults            0                       # Number of TLB faults due to domain restrictions
system.cpu.itb.stage2_mmu.stage2_tlb.flush_entries            0                       # Number of entries that have been flushed from TLB
system.cpu.itb.stage2_mmu.stage2_tlb.flush_tlb            0                       # Number of times complete TLB was flushed
system.cpu.itb.stage2_mmu.stage2_tlb.flush_tlb_asid            0                       # Number of times TLB was flushed by ASID
system.cpu.itb.stage2_mmu.stage2_tlb.flush_tlb_mva            0                       # Number of times TLB was flushed by MVA
system.cpu.itb.stage2_mmu.stage2_tlb.flush_tlb_mva_asid            0                       # Number of times TLB was flushed by MVA & ASID
system.cpu.itb.stage2_mmu.stage2_tlb.hits            0                       # DTB hits
system.cpu.itb.stage2_mmu.stage2_tlb.inst_accesses            0                       # ITB inst accesses
system.cpu.itb.stage2_mmu.stage2_tlb.inst_hits            0                       # ITB inst hits
system.cpu.itb.stage2_mmu.stage2_tlb.inst_misses            0                       # ITB inst misses
system.cpu.itb.stage2_mmu.stage2_tlb.misses            0                       # DTB misses
system.cpu.itb.stage2_mmu.stage2_tlb.perms_faults            0                       # Number of TLB faults due to permissions restrictions
system.cpu.itb.stage2_mmu.stage2_tlb.prefetch_faults            0                       # Number of TLB faults due to prefetch
system.cpu.itb.stage2_mmu.stage2_tlb.read_accesses            0                       # DTB read accesses
system.cpu.itb.stage2_mmu.stage2_tlb.read_hits            0                       # DTB read hits
system.cpu.itb.stage2_mmu.stage2_tlb.read_misses            0                       # DTB read misses
system.cpu.itb.stage2_mmu.stage2_tlb.walker.walkRequestOrigin_Requested::Data            0                       # Table walker requests started/completed, data/inst
system.cpu.itb.stage2_mmu.stage2_tlb.walker.walkRequestOrigin_Requested::Inst            0                       # Table walker requests started/completed, data/inst
system.cpu.itb.stage2_mmu.stage2_tlb.walker.walkRequestOrigin_Requested::total            0                       # Table walker requests started/completed, data/inst
system.cpu.itb.stage2_mmu.stage2_tlb.walker.walkRequestOrigin_Completed::Data            0                       # Table walker requests started/completed, data/inst
system.cpu.itb.stage2_mmu.stage2_tlb.walker.walkRequestOrigin_Completed::Inst            0                       # Table walker requests started/completed, data/inst
system.cpu.itb.stage2_mmu.stage2_tlb.walker.walkRequestOrigin_Completed::total            0                       # Table walker requests started/completed, data/inst
system.cpu.itb.stage2_mmu.stage2_tlb.walker.walkRequestOrigin::total            0                       # Table walker requests started/completed, data/inst
system.cpu.itb.stage2_mmu.stage2_tlb.walker.walks            0                       # Table walker walks requested
system.cpu.itb.stage2_mmu.stage2_tlb.write_accesses            0                       # DTB write accesses
system.cpu.itb.stage2_mmu.stage2_tlb.write_hits            0                       # DTB write hits
system.cpu.itb.stage2_mmu.stage2_tlb.write_misses            0                       # DTB write misses
system.cpu.itb.walker.walkRequestOrigin_Requested::Data            0                       # Table walker requests started/completed, data/inst
system.cpu.itb.walker.walkRequestOrigin_Requested::Inst            0                       # Table walker requests started/completed, data/inst
system.cpu.itb.walker.walkRequestOrigin_Requested::total            0                       # Table walker requests started/completed, data/inst
system.cpu.itb.walker.walkRequestOrigin_Completed::Data            0                       # Table walker requests started/completed, data/inst
system.cpu.itb.walker.walkRequestOrigin_Completed::Inst            0                       # Table walker requests started/completed, data/inst
system.cpu.itb.walker.walkRequestOrigin_Completed::total            0                       # Table walker requests started/completed, data/inst
system.cpu.itb.walker.walkRequestOrigin::total            0                       # Table walker requests started/completed, data/inst
system.cpu.itb.walker.walks                         0                       # Table walker walks requested
system.cpu.itb.write_accesses                       0                       # DTB write accesses
system.cpu.itb.write_hits                           0                       # DTB write hits
system.cpu.itb.write_misses                         0                       # DTB write misses
system.cpu.numCycles                        379560848                       # number of cpu cycles simulated
system.cpu.numFetchSuspends                         0                       # Number of times Execute suspended instruction fetching
system.cpu.numWorkItemsCompleted                    0                       # number of work items this cpu completed
system.cpu.numWorkItemsStarted                      0                       # number of work items this cpu started
system.cpu.op_class_0::No_OpClass                   9      0.00%      0.00% # Class of committed instruction
system.cpu.op_class_0::IntAlu                64640826     63.48%     63.48% # Class of committed instruction
system.cpu.op_class_0::IntMult                    133      0.00%     63.48% # Class of committed instruction
system.cpu.op_class_0::IntDiv                       3      0.00%     63.48% # Class of committed instruction
system.cpu.op_class_0::FloatAdd                     0      0.00%     63.48% # Class of committed instruction
system.cpu.op_class_0::FloatCmp                     0      0.00%     63.48% # Class of committed instruction
system.cpu.op_class_0::FloatCvt                     0      0.00%     63.48% # Class of committed instruction
system.cpu.op_class_0::FloatMult                    0      0.00%     63.48% # Class of committed instruction
system.cpu.op_class_0::FloatMultAcc                 0      0.00%     63.48% # Class of committed instruction
system.cpu.op_class_0::FloatDiv                     0      0.00%     63.48% # Class of committed instruction
system.cpu.op_class_0::FloatMisc                    0      0.00%     63.48% # Class of committed instruction
system.cpu.op_class_0::FloatSqrt                    0      0.00%     63.48% # Class of committed instruction
system.cpu.op_class_0::SimdAdd                     29      0.00%     63.48% # Class of committed instruction
system.cpu.op_class_0::SimdAddAcc                   0      0.00%     63.48% # Class of committed instruction
system.cpu.op_class_0::SimdAlu                     34      0.00%     63.48% # Class of committed instruction
system.cpu.op_class_0::SimdCmp                     36      0.00%     63.48% # Class of committed instruction
system.cpu.op_class_0::SimdCvt                      0      0.00%     63.48% # Class of committed instruction
system.cpu.op_class_0::SimdMisc                    26      0.00%     63.48% # Class of committed instruction
system.cpu.op_class_0::SimdMult                     0      0.00%     63.48% # Class of committed instruction
system.cpu.op_class_0::SimdMultAcc                  0      0.00%     63.48% # Class of committed instruction
system.cpu.op_class_0::SimdShift                    0      0.00%     63.48% # Class of committed instruction
system.cpu.op_class_0::SimdShiftAcc                 0      0.00%     63.48% # Class of committed instruction
system.cpu.op_class_0::SimdDiv                      0      0.00%     63.48% # Class of committed instruction
system.cpu.op_class_0::SimdSqrt                     0      0.00%     63.48% # Class of committed instruction
system.cpu.op_class_0::SimdFloatAdd                 0      0.00%     63.48% # Class of committed instruction
system.cpu.op_class_0::SimdFloatAlu                 0      0.00%     63.48% # Class of committed instruction
system.cpu.op_class_0::SimdFloatCmp                 0      0.00%     63.48% # Class of committed instruction
system.cpu.op_class_0::SimdFloatCvt                 0      0.00%     63.48% # Class of committed instruction
system.cpu.op_class_0::SimdFloatDiv                 0      0.00%     63.48% # Class of committed instruction
system.cpu.op_class_0::SimdFloatMisc                0      0.00%     63.48% # Class of committed instruction
system.cpu.op_class_0::SimdFloatMult                0      0.00%     63.48% # Class of committed instruction
system.cpu.op_class_0::SimdFloatMultAcc             0      0.00%     63.48% # Class of committed instruction
system.cpu.op_class_0::SimdFloatSqrt                0      0.00%     63.48% # Class of committed instruction
system.cpu.op_class_0::SimdReduceAdd                0      0.00%     63.48% # Class of committed instruction
system.cpu.op_class_0::SimdReduceAlu                0      0.00%     63.48% # Class of committed instruction
system.cpu.op_class_0::SimdReduceCmp                0      0.00%     63.48% # Class of committed instruction
system.cpu.op_class_0::SimdFloatReduceAdd            0      0.00%     63.48% # Class of committed instruction
system.cpu.op_class_0::SimdFloatReduceCmp            0      0.00%     63.48% # Class of committed instruction
system.cpu.op_class_0::SimdAes                      0      0.00%     63.48% # Class of committed instruction
system.cpu.op_class_0::SimdAesMix                   0      0.00%     63.48% # Class of committed instruction
system.cpu.op_class_0::SimdSha1Hash                 0      0.00%     63.48% # Class of committed instruction
system.cpu.op_class_0::SimdSha1Hash2                0      0.00%     63.48% # Class of committed instruction
system.cpu.op_class_0::SimdSha256Hash               0      0.00%     63.48% # Class of committed instruction
system.cpu.op_class_0::SimdSha256Hash2              0      0.00%     63.48% # Class of committed instruction
system.cpu.op_class_0::SimdShaSigma2                0      0.00%     63.48% # Class of committed instruction
system.cpu.op_class_0::SimdShaSigma3                0      0.00%     63.48% # Class of committed instruction
system.cpu.op_class_0::SimdPredAlu                  0      0.00%     63.48% # Class of committed instruction
system.cpu.op_class_0::MemRead               26916802     26.43%     89.92% # Class of committed instruction
system.cpu.op_class_0::MemWrite              10267847     10.08%    100.00% # Class of committed instruction
system.cpu.op_class_0::FloatMemRead                 0      0.00%    100.00% # Class of committed instruction
system.cpu.op_class_0::FloatMemWrite                0      0.00%    100.00% # Class of committed instruction
system.cpu.op_class_0::IprAccess                    0      0.00%    100.00% # Class of committed instruction
system.cpu.op_class_0::InstPrefetch                 0      0.00%    100.00% # Class of committed instruction
system.cpu.op_class_0::total                101825745                       # Class of committed instruction
system.cpu.tickCycles                       340349832                       # Number of cycles that the object actually ticked
system.cpu.workload.numSyscalls                    23                       # Number of system calls
system.membus.snoop_filter.hit_multi_requests            0                       # Number of requests hitting in the snoop filter with multiple (>1) holders of the requested data.
system.membus.snoop_filter.hit_multi_snoops            0                       # Number of snoops hitting in the snoop filter with multiple (>1) holders of the requested data.
system.membus.snoop_filter.hit_single_requests        98730                       # Number of requests hitting in the snoop filter with a single holder of the requested data.
system.membus.snoop_filter.hit_single_snoops            0                       # Number of snoops hitting in the snoop filter with a single holder of the requested data.
system.membus.snoop_filter.tot_requests        230482                       # Total number of requests made to the snoop filter.
system.membus.snoop_filter.tot_snoops               0                       # Total number of snoops made to the snoop filter.
system.tol2bus.snoop_filter.hit_multi_requests            1                       # Number of requests hitting in the snoop filter with multiple (>1) holders of the requested data.
system.tol2bus.snoop_filter.hit_multi_snoops            0                       # Number of snoops hitting in the snoop filter with multiple (>1) holders of the requested data.
system.tol2bus.snoop_filter.hit_single_requests      1237598                       # Number of requests hitting in the snoop filter with a single holder of the requested data.
system.tol2bus.snoop_filter.hit_single_snoops          323                       # Number of snoops hitting in the snoop filter with a single holder of the requested data.
system.tol2bus.snoop_filter.tot_requests      2476474                       # Total number of requests made to the snoop filter.
system.tol2bus.snoop_filter.tot_snoops            323                       # Total number of snoops made to the snoop filter.
system.membus.trans_dist::ReadResp              41776                       # Transaction distribution
system.membus.trans_dist::WritebackDirty        85133                       # Transaction distribution
system.membus.trans_dist::CleanEvict            13597                       # Transaction distribution
system.membus.trans_dist::ReadExReq             89969                       # Transaction distribution
system.membus.trans_dist::ReadExResp            89969                       # Transaction distribution
system.membus.trans_dist::ReadSharedReq         41776                       # Transaction distribution
system.membus.trans_dist::InvalidateReq             7                       # Transaction distribution
system.membus.pkt_count_system.l2.mem_side::system.mem_ctrls.port       362227                       # Packet count per connected master and slave (bytes)
system.membus.pkt_count::total                 362227                       # Packet count per connected master and slave (bytes)
system.membus.pkt_size_system.l2.mem_side::system.mem_ctrls.port     13880192                       # Cumulative packet size per connected master and slave (bytes)
system.membus.pkt_size::total                13880192                       # Cumulative packet size per connected master and slave (bytes)
system.membus.snoops                                0                       # Total snoops (count)
system.membus.snoopTraffic                          0                       # Total snoop traffic (bytes)
system.membus.snoop_fanout::samples            131752                       # Request fanout histogram
system.membus.snoop_fanout::mean                    0                       # Request fanout histogram
system.membus.snoop_fanout::stdev                   0                       # Request fanout histogram
system.membus.snoop_fanout::underflows              0      0.00%      0.00% # Request fanout histogram
system.membus.snoop_fanout::0                  131752    100.00%    100.00% # Request fanout histogram
system.membus.snoop_fanout::1                       0      0.00%    100.00% # Request fanout histogram
system.membus.snoop_fanout::overflows               0      0.00%    100.00% # Request fanout histogram
system.membus.snoop_fanout::min_value               0                       # Request fanout histogram
system.membus.snoop_fanout::max_value               0                       # Request fanout histogram
system.membus.snoop_fanout::total              131752                       # Request fanout histogram
system.membus.reqLayer0.occupancy           604100000                       # Layer occupancy (ticks)
system.membus.reqLayer0.utilization               0.3                       # Layer utilization (%)
system.membus.respLayer1.occupancy          714426250                       # Layer occupancy (ticks)
system.membus.respLayer1.utilization              0.4                       # Layer utilization (%)
system.membus.power_state.pwrStateResidencyTicks::UNDEFINED 189780424000                       # Cumulative time (in ticks) in various power states
system.tol2bus.trans_dist::ReadResp            830193                       # Transaction distribution
system.tol2bus.trans_dist::WritebackDirty       819565                       # Transaction distribution
system.tol2bus.trans_dist::WritebackClean          474                       # Transaction distribution
system.tol2bus.trans_dist::CleanEvict          516612                       # Transaction distribution
system.tol2bus.trans_dist::ReadExReq           408676                       # Transaction distribution
system.tol2bus.trans_dist::ReadExResp          408676                       # Transaction distribution
system.tol2bus.trans_dist::ReadCleanReq           728                       # Transaction distribution
system.tol2bus.trans_dist::ReadSharedReq       829465                       # Transaction distribution
system.tol2bus.trans_dist::InvalidateReq            7                       # Transaction distribution
system.tol2bus.trans_dist::InvalidateResp            7                       # Transaction distribution
system.tol2bus.pkt_count_system.cpu.icache.mem_side::system.l2.cpu_side         1930                       # Packet count per connected master and slave (bytes)
system.tol2bus.pkt_count_system.cpu.dcache.mem_side::system.l2.cpu_side      3713420                       # Packet count per connected master and slave (bytes)
system.tol2bus.pkt_count::total               3715350                       # Packet count per connected master and slave (bytes)
system.tol2bus.pkt_size_system.cpu.icache.mem_side::system.l2.cpu_side        76928                       # Cumulative packet size per connected master and slave (bytes)
system.tol2bus.pkt_size_system.cpu.dcache.mem_side::system.l2.cpu_side    126244672                       # Cumulative packet size per connected master and slave (bytes)
system.tol2bus.pkt_size::total              126321600                       # Cumulative packet size per connected master and slave (bytes)
system.tol2bus.snoops                           99053                       # Total snoops (count)
system.tol2bus.snoopTraffic                   5448512                       # Total snoop traffic (bytes)
system.tol2bus.snoop_fanout::samples          1337929                       # Request fanout histogram
system.tol2bus.snoop_fanout::mean            0.000242                       # Request fanout histogram
system.tol2bus.snoop_fanout::stdev           0.015560                       # Request fanout histogram
system.tol2bus.snoop_fanout::underflows             0      0.00%      0.00% # Request fanout histogram
system.tol2bus.snoop_fanout::0                1337605     99.98%     99.98% # Request fanout histogram
system.tol2bus.snoop_fanout::1                    324      0.02%    100.00% # Request fanout histogram
system.tol2bus.snoop_fanout::2                      0      0.00%    100.00% # Request fanout histogram
system.tol2bus.snoop_fanout::overflows              0      0.00%    100.00% # Request fanout histogram
system.tol2bus.snoop_fanout::min_value              0                       # Request fanout histogram
system.tol2bus.snoop_fanout::max_value              1                       # Request fanout histogram
system.tol2bus.snoop_fanout::total            1337929                       # Request fanout histogram
system.tol2bus.reqLayer0.occupancy         1973143000                       # Layer occupancy (ticks)
system.tol2bus.reqLayer0.utilization              1.0                       # Layer utilization (%)
system.tol2bus.respLayer1.occupancy        1857215000                       # Layer occupancy (ticks)
system.tol2bus.respLayer1.utilization             1.0                       # Layer utilization (%)
system.tol2bus.respLayer0.occupancy           1092000                       # Layer occupancy (ticks)
system.tol2bus.respLayer0.utilization             0.0                       # Layer utilization (%)
system.tol2bus.power_state.pwrStateResidencyTicks::UNDEFINED 189780424000                       # Cumulative time (in ticks) in various power states
system.voltage_domain.voltage                       1                       # Voltage in Volts
system.clk_domain.clock                          1000                       # Clock period in ticks
system.l2.demand_hits::.cpu.inst                   74                       # number of demand (read+write) hits
system.l2.demand_hits::.cpu.data              1107050                       # number of demand (read+write) hits
system.l2.demand_hits::total                  1107124                       # number of demand (read+write) hits
system.l2.overall_hits::.cpu.inst                  74                       # number of overall hits
system.l2.overall_hits::.cpu.data             1107050                       # number of overall hits
system.l2.overall_hits::total                 1107124                       # number of overall hits
system.l2.demand_misses::.cpu.inst                654                       # number of demand (read+write) misses
system.l2.demand_misses::.cpu.data             131091                       # number of demand (read+write) misses
system.l2.demand_misses::total                 131745                       # number of demand (read+write) misses
system.l2.overall_misses::.cpu.inst               654                       # number of overall misses
system.l2.overall_misses::.cpu.data            131091                       # number of overall misses
system.l2.overall_misses::total                131745                       # number of overall misses
system.l2.demand_miss_latency::.cpu.inst     51507000                       # number of demand (read+write) miss cycles
system.l2.demand_miss_latency::.cpu.data  11121709500                       # number of demand (read+write) miss cycles
system.l2.demand_miss_latency::total      11173216500                       # number of demand (read+write) miss cycles
system.l2.overall_miss_latency::.cpu.inst     51507000                       # number of overall miss cycles
system.l2.overall_miss_latency::.cpu.data  11121709500                       # number of overall miss cycles
system.l2.overall_miss_latency::total     11173216500                       # number of overall miss cycles
system.l2.demand_accesses::.cpu.inst              728                       # number of demand (read+write) accesses
system.l2.demand_accesses::.cpu.data          1238141                       # number of demand (read+write) accesses
system.l2.demand_accesses::total              1238869                       # number of demand (read+write) accesses
system.l2.overall_accesses::.cpu.inst             728                       # number of overall (read+write) accesses
system.l2.overall_accesses::.cpu.data         1238141                       # number of overall (read+write) accesses
system.l2.overall_accesses::total             1238869                       # number of overall (read+write) accesses
system.l2.demand_miss_rate::.cpu.inst        0.898352                       # miss rate for demand accesses
system.l2.demand_miss_rate::.cpu.data        0.105877                       # miss rate for demand accesses
system.l2.demand_miss_rate::total            0.106343                       # miss rate for demand accesses
system.l2.overall_miss_rate::.cpu.inst       0.898352                       # miss rate for overall accesses
system.l2.overall_miss_rate::.cpu.data       0.105877                       # miss rate for overall accesses
system.l2.overall_miss_rate::total           0.106343                       # miss rate for overall accesses
system.l2.demand_avg_miss_latency::.cpu.inst 78756.880734                       # average overall miss latency
system.l2.demand_avg_miss_latency::.cpu.data 84839.611415                       # average overall miss latency
system.l2.demand_avg_miss_latency::total 84809.415917                       # average overall miss latency
system.l2.overall_avg_miss_latency::.cpu.inst 78756.880734                       # average overall miss latency
system.l2.overall_avg_miss_latency::.cpu.data 84839.611415                       # average overall miss latency
system.l2.overall_avg_miss_latency::total 84809.415917                       # average overall miss latency
system.l2.blocked_cycles::no_mshrs                  0                       # number of cycles access was blocked
system.l2.blocked_cycles::no_targets                0                       # number of cycles access was blocked
system.l2.blocked::no_mshrs                         0                       # number of cycles access was blocked
system.l2.blocked::no_targets                       0                       # number of cycles access was blocked
system.l2.avg_blocked_cycles::no_mshrs            nan                       # average number of cycles each access was blocked
system.l2.avg_blocked_cycles::no_targets          nan                       # average number of cycles each access was blocked
system.l2.writebacks::.writebacks               85133                       # number of writebacks
system.l2.writebacks::total                     85133                       # number of writebacks
system.l2.demand_mshr_misses::.cpu.inst           654                       # number of demand (read+write) MSHR misses
system.l2.demand_mshr_misses::.cpu.data        131091                       # number of demand (read+write) MSHR misses
system.l2.demand_mshr_misses::total            131745                       # number of demand (read+write) MSHR misses
system.l2.overall_mshr_misses::.cpu.inst          654                       # number of overall MSHR misses
system.l2.overall_mshr_misses::.cpu.data       131091                       # number of overall MSHR misses
system.l2.overall_mshr_misses::total           131745                       # number of overall MSHR misses
system.l2.demand_mshr_miss_latency::.cpu.inst     44967000                       # number of demand (read+write) MSHR miss cycles
system.l2.demand_mshr_miss_latency::.cpu.data   9810799500                       # number of demand (read+write) MSHR miss cycles
system.l2.demand_mshr_miss_latency::total   9855766500                       # number of demand (read+write) MSHR miss cycles
system.l2.overall_mshr_miss_latency::.cpu.inst     44967000                       # number of overall MSHR miss cycles
system.l2.overall_mshr_miss_latency::.cpu.data   9810799500                       # number of overall MSHR miss cycles
system.l2.overall_mshr_miss_latency::total   9855766500                       # number of overall MSHR miss cycles
system.l2.demand_mshr_miss_rate::.cpu.inst     0.898352                       # mshr miss rate for demand accesses
system.l2.demand_mshr_miss_rate::.cpu.data     0.105877                       # mshr miss rate for demand accesses
system.l2.demand_mshr_miss_rate::total       0.106343                       # mshr miss rate for demand accesses
system.l2.overall_mshr_miss_rate::.cpu.inst     0.898352                       # mshr miss rate for overall accesses
system.l2.overall_mshr_miss_rate::.cpu.data     0.105877                       # mshr miss rate for overall accesses
system.l2.overall_mshr_miss_rate::total      0.106343                       # mshr miss rate for overall accesses
system.l2.demand_avg_mshr_miss_latency::.cpu.inst 68756.880734                       # average overall mshr miss latency
system.l2.demand_avg_mshr_miss_latency::.cpu.data 74839.611415                       # average overall mshr miss latency
system.l2.demand_avg_mshr_miss_latency::total 74809.415917                       # average overall mshr miss latency
system.l2.overall_avg_mshr_miss_latency::.cpu.inst 68756.880734                       # average overall mshr miss latency
system.l2.overall_avg_mshr_miss_latency::.cpu.data 74839.611415                       # average overall mshr miss latency
system.l2.overall_avg_mshr_miss_latency::total 74809.415917                       # average overall mshr miss latency
system.l2.replacements                          99053                       # number of replacements
system.l2.WritebackDirty_hits::.writebacks       734432                       # number of WritebackDirty hits
system.l2.WritebackDirty_hits::total           734432                       # number of WritebackDirty hits
system.l2.WritebackDirty_accesses::.writebacks       734432                       # number of WritebackDirty accesses(hits+misses)
system.l2.WritebackDirty_accesses::total       734432                       # number of WritebackDirty accesses(hits+misses)
system.l2.WritebackClean_hits::.writebacks          474                       # number of WritebackClean hits
system.l2.WritebackClean_hits::total              474                       # number of WritebackClean hits
system.l2.WritebackClean_accesses::.writebacks          474                       # number of WritebackClean accesses(hits+misses)
system.l2.WritebackClean_accesses::total          474                       # number of WritebackClean accesses(hits+misses)
system.l2.ReadExReq_hits::.cpu.data            318707                       # number of ReadExReq hits
system.l2.ReadExReq_hits::total                318707                       # number of ReadExReq hits
system.l2.ReadExReq_misses::.cpu.data           89969                       # number of ReadExReq misses
system.l2.ReadExReq_misses::total               89969                       # number of ReadExReq misses
system.l2.ReadExReq_miss_latency::.cpu.data   7792929000                       # number of ReadExReq miss cycles
system.l2.ReadExReq_miss_latency::total    7792929000                       # number of ReadExReq miss cycles
system.l2.ReadExReq_accesses::.cpu.data        408676                       # number of ReadExReq accesses(hits+misses)
system.l2.ReadExReq_accesses::total            408676                       # number of ReadExReq accesses(hits+misses)
system.l2.ReadExReq_miss_rate::.cpu.data     0.220148                       # miss rate for ReadExReq accesses
system.l2.ReadExReq_miss_rate::total         0.220148                       # miss rate for ReadExReq accesses
system.l2.ReadExReq_avg_miss_latency::.cpu.data 86617.935067                       # average ReadExReq miss latency
system.l2.ReadExReq_avg_miss_latency::total 86617.935067                       # average ReadExReq miss latency
system.l2.ReadExReq_mshr_misses::.cpu.data        89969                       # number of ReadExReq MSHR misses
system.l2.ReadExReq_mshr_misses::total          89969                       # number of ReadExReq MSHR misses
system.l2.ReadExReq_mshr_miss_latency::.cpu.data   6893239000                       # number of ReadExReq MSHR miss cycles
system.l2.ReadExReq_mshr_miss_latency::total   6893239000                       # number of ReadExReq MSHR miss cycles
system.l2.ReadExReq_mshr_miss_rate::.cpu.data     0.220148                       # mshr miss rate for ReadExReq accesses
system.l2.ReadExReq_mshr_miss_rate::total     0.220148                       # mshr miss rate for ReadExReq accesses
system.l2.ReadExReq_avg_mshr_miss_latency::.cpu.data 76617.935067                       # average ReadExReq mshr miss latency
system.l2.ReadExReq_avg_mshr_miss_latency::total 76617.935067                       # average ReadExReq mshr miss latency
system.l2.ReadCleanReq_hits::.cpu.inst             74                       # number of ReadCleanReq hits
system.l2.ReadCleanReq_hits::total                 74                       # number of ReadCleanReq hits
system.l2.ReadCleanReq_misses::.cpu.inst          654                       # number of ReadCleanReq misses
system.l2.ReadCleanReq_misses::total              654                       # number of ReadCleanReq misses
system.l2.ReadCleanReq_miss_latency::.cpu.inst     51507000                       # number of ReadCleanReq miss cycles
system.l2.ReadCleanReq_miss_latency::total     51507000                       # number of ReadCleanReq miss cycles
system.l2.ReadCleanReq_accesses::.cpu.inst          728                       # number of ReadCleanReq accesses(hits+misses)
system.l2.ReadCleanReq_accesses::total            728                       # number of ReadCleanReq accesses(hits+misses)
system.l2.ReadCleanReq_miss_rate::.cpu.inst     0.898352                       # miss rate for ReadCleanReq accesses
system.l2.ReadCleanReq_miss_rate::total      0.898352                       # miss rate for ReadCleanReq accesses
system.l2.ReadCleanReq_avg_miss_latency::.cpu.inst 78756.880734                       # average ReadCleanReq miss latency
system.l2.ReadCleanReq_avg_miss_latency::total 78756.880734                       # average ReadCleanReq miss latency
system.l2.ReadCleanReq_mshr_misses::.cpu.inst          654                       # number of ReadCleanReq MSHR misses
system.l2.ReadCleanReq_mshr_misses::total          654                       # number of ReadCleanReq MSHR misses
system.l2.ReadCleanReq_mshr_miss_latency::.cpu.inst     44967000                       # number of ReadCleanReq MSHR miss cycles
system.l2.ReadCleanReq_mshr_miss_latency::total     44967000                       # number of ReadCleanReq MSHR miss cycles
system.l2.ReadCleanReq_mshr_miss_rate::.cpu.inst     0.898352                       # mshr miss rate for ReadCleanReq accesses
system.l2.ReadCleanReq_mshr_miss_rate::total     0.898352                       # mshr miss rate for ReadCleanReq accesses
system.l2.ReadCleanReq_avg_mshr_miss_latency::.cpu.inst 68756.880734                       # average ReadCleanReq mshr miss latency
system.l2.ReadCleanReq_avg_mshr_miss_latency::total 68756.880734                       # average ReadCleanReq mshr miss latency
system.l2.ReadSharedReq_hits::.cpu.data        788343                       # number of ReadSharedReq hits
system.l2.ReadSharedReq_hits::total            788343                       # number of ReadSharedReq hits
system.l2.ReadSharedReq_misses::.cpu.data        41122                       # number of ReadSharedReq misses
system.l2.ReadSharedReq_misses::total           41122                       # number of ReadSharedReq misses
system.l2.ReadSharedReq_miss_latency::.cpu.data   3328780500                       # number of ReadSharedReq miss cycles
system.l2.ReadSharedReq_miss_latency::total   3328780500                       # number of ReadSharedReq miss cycles
system.l2.ReadSharedReq_accesses::.cpu.data       829465                       # number of ReadSharedReq accesses(hits+misses)
system.l2.ReadSharedReq_accesses::total        829465                       # number of ReadSharedReq accesses(hits+misses)
system.l2.ReadSharedReq_miss_rate::.cpu.data     0.049577                       # miss rate for ReadSharedReq accesses
system.l2.ReadSharedReq_miss_rate::total     0.049577                       # miss rate for ReadSharedReq accesses
system.l2.ReadSharedReq_avg_miss_latency::.cpu.data 80948.895968                       # average ReadSharedReq miss latency
system.l2.ReadSharedReq_avg_miss_latency::total 80948.895968                       # average ReadSharedReq miss latency
system.l2.ReadSharedReq_mshr_misses::.cpu.data        41122                       # number of ReadSharedReq MSHR misses
system.l2.ReadSharedReq_mshr_misses::total        41122                       # number of ReadSharedReq MSHR misses
system.l2.ReadSharedReq_mshr_miss_latency::.cpu.data   2917560500                       # number of ReadSharedReq MSHR miss cycles
system.l2.ReadSharedReq_mshr_miss_latency::total   2917560500                       # number of ReadSharedReq MSHR miss cycles
system.l2.ReadSharedReq_mshr_miss_rate::.cpu.data     0.049577                       # mshr miss rate for ReadSharedReq accesses
system.l2.ReadSharedReq_mshr_miss_rate::total     0.049577                       # mshr miss rate for ReadSharedReq accesses
system.l2.ReadSharedReq_avg_mshr_miss_latency::.cpu.data 70948.895968                       # average ReadSharedReq mshr miss latency
system.l2.ReadSharedReq_avg_mshr_miss_latency::total 70948.895968                       # average ReadSharedReq mshr miss latency
system.l2.InvalidateReq_misses::.cpu.data            7                       # number of InvalidateReq misses
system.l2.InvalidateReq_misses::total               7                       # number of InvalidateReq misses
system.l2.InvalidateReq_accesses::.cpu.data            7                       # number of InvalidateReq accesses(hits+misses)
system.l2.InvalidateReq_accesses::total             7                       # number of InvalidateReq accesses(hits+misses)
system.l2.InvalidateReq_miss_rate::.cpu.data            1                       # miss rate for InvalidateReq accesses
system.l2.InvalidateReq_miss_rate::total            1                       # miss rate for InvalidateReq accesses
system.l2.InvalidateReq_mshr_misses::.cpu.data            7                       # number of InvalidateReq MSHR misses
system.l2.InvalidateReq_mshr_misses::total            7                       # number of InvalidateReq MSHR misses
system.l2.InvalidateReq_mshr_miss_latency::.cpu.data       134500                       # number of InvalidateReq MSHR miss cycles
system.l2.InvalidateReq_mshr_miss_latency::total       134500                       # number of InvalidateReq MSHR miss cycles
system.l2.InvalidateReq_mshr_miss_rate::.cpu.data            1                       # mshr miss rate for InvalidateReq accesses
system.l2.InvalidateReq_mshr_miss_rate::total            1                       # mshr miss rate for InvalidateReq accesses
system.l2.InvalidateReq_avg_mshr_miss_latency::.cpu.data 19214.285714                       # average InvalidateReq mshr miss latency
system.l2.InvalidateReq_avg_mshr_miss_latency::total 19214.285714                       # average InvalidateReq mshr miss latency
system.l2.power_state.pwrStateResidencyTicks::UNDEFINED 189780424000                       # Cumulative time (in ticks) in various power states
system.l2.tags.tagsinuse                 26685.824736                       # Cycle average of tags in use
system.l2.tags.total_refs                     2476466                       # Total number of references to valid blocks.
system.l2.tags.sampled_refs                    131821                       # Sample count of references to valid blocks.
system.l2.tags.avg_refs                     18.786582                       # Average number of references to valid blocks.
system.l2.tags.warmup_cycle                     77000                       # Cycle when the warmup percentage was hit.
system.l2.tags.occ_blocks::.writebacks      11.741040                       # Average occupied blocks per requestor
system.l2.tags.occ_blocks::.cpu.inst       172.692052                       # Average occupied blocks per requestor
system.l2.tags.occ_blocks::.cpu.data     26501.391644                       # Average occupied blocks per requestor
system.l2.tags.occ_percent::.writebacks      0.000358                       # Average percentage of cache occupancy
system.l2.tags.occ_percent::.cpu.inst        0.005270                       # Average percentage of cache occupancy
system.l2.tags.occ_percent::.cpu.data        0.808758                       # Average percentage of cache occupancy
system.l2.tags.occ_percent::total            0.814387                       # Average percentage of cache occupancy
system.l2.tags.occ_task_id_blocks::1024         32768                       # Occupied blocks per task id
system.l2.tags.age_task_id_blocks_1024::2           33                       # Occupied blocks per task id
system.l2.tags.age_task_id_blocks_1024::3         3235                       # Occupied blocks per task id
system.l2.tags.age_task_id_blocks_1024::4        29500                       # Occupied blocks per task id
system.l2.tags.occ_task_id_percent::1024            1                       # Percentage of cache occupancy per task id
system.l2.tags.tag_accesses                  19943605                       # Number of tag accesses
system.l2.tags.data_accesses                 19943605                       # Number of data accesses
system.l2.tags.power_state.pwrStateResidencyTicks::UNDEFINED 189780424000                       # Cumulative time (in ticks) in various power states
system.cpu_voltage_domain.voltage                   1                       # Voltage in Volts
system.mem_ctrls.bytes_read::.cpu.inst          41856                       # Number of bytes read from this memory
system.mem_ctrls.bytes_read::.cpu.data        8389824                       # Number of bytes read from this memory
system.mem_ctrls.bytes_read::total            8431680                       # Number of bytes read from this memory
system.mem_ctrls.bytes_inst_read::.cpu.inst        41856                       # Number of instructions bytes read from this memory
system.mem_ctrls.bytes_inst_read::total         41856                       # Number of instructions bytes read from this memory
system.mem_ctrls.bytes_written::.writebacks      5448512                       # Number of bytes written to this memory
system.mem_ctrls.bytes_written::total         5448512                       # Number of bytes written to this memory
system.mem_ctrls.num_reads::.cpu.inst             654                       # Number of read requests responded to by this memory
system.mem_ctrls.num_reads::.cpu.data          131091                       # Number of read requests responded to by this memory
system.mem_ctrls.num_reads::total              131745                       # Number of read requests responded to by this memory
system.mem_ctrls.num_writes::.writebacks        85133                       # Number of write requests responded to by this memory
system.mem_ctrls.num_writes::total              85133                       # Number of write requests responded to by this memory
system.mem_ctrls.bw_read::.cpu.inst            220550                       # Total read bandwidth from this memory (bytes/s)
system.mem_ctrls.bw_read::.cpu.data          44208058                       # Total read bandwidth from this memory (bytes/s)
system.mem_ctrls.bw_read::total              44428608                       # Total read bandwidth from this memory (bytes/s)
system.mem_ctrls.bw_inst_read::.cpu.inst       220550                       # Instruction read bandwidth from this memory (bytes/s)
system.mem_ctrls.bw_inst_read::total           220550                       # Instruction read bandwidth from this memory (bytes/s)
system.mem_ctrls.bw_write::.writebacks       28709558                       # Write bandwidth from this memory (bytes/s)
system.mem_ctrls.bw_write::total             28709558                       # Write bandwidth from this memory (bytes/s)
system.mem_ctrls.bw_total::.writebacks       28709558                       # Total bandwidth to/from this memory (bytes/s)
system.mem_ctrls.bw_total::.cpu.inst           220550                       # Total bandwidth to/from this memory (bytes/s)
system.mem_ctrls.bw_total::.cpu.data         44208058                       # Total bandwidth to/from this memory (bytes/s)
system.mem_ctrls.bw_total::total             73138165                       # Total bandwidth to/from this memory (bytes/s)
system.mem_ctrls.avgPriority_.writebacks::samples     85133.00                       # Average QoS priority value for accepted requests
system.mem_ctrls.avgPriority_.cpu.inst::samples       654.00                       # Average QoS priority value for accepted requests
system.mem_ctrls.avgPriority_.cpu.data::samples    130992.00                       # Average QoS priority value for accepted requests
system.mem_ctrls.priorityMinLatency      0.000000018750                       # per QoS priority minimum request to response latency (s)
system.mem_ctrls.priorityMaxLatency      0.009449918500                       # per QoS priority maximum request to response latency (s)
system.mem_ctrls.numReadWriteTurnArounds         4898                       # Number of turnarounds from READ to WRITE
system.mem_ctrls.numWriteReadTurnArounds         4898                       # Number of turnarounds from WRITE to READ
system.mem_ctrls.numStayReadState              395298                       # Number of times bus staying in READ state
system.mem_ctrls.numStayWriteState              80294                       # Number of times bus staying in WRITE state
system.mem_ctrls.readReqs                      131745                       # Number of read requests accepted
system.mem_ctrls.writeReqs                      85133                       # Number of write requests accepted
system.mem_ctrls.readBursts                    131745                       # Number of DRAM read bursts, including those serviced by the write queue
system.mem_ctrls.writeBursts                    85133                       # Number of DRAM write bursts, including those merged in the write queue
system.mem_ctrls.servicedByWrQ                     99                       # Number of DRAM read bursts serviced by the write queue
system.mem_ctrls.mergedWrBursts                     0                       # Number of DRAM write bursts merged with an existing one
system.mem_ctrls.neitherReadNorWriteReqs            0                       # Number of requests that are neither read nor write
system.mem_ctrls.perBankRdBursts::0              8164                       # Per bank write bursts
system.mem_ctrls.perBankRdBursts::1              8822                       # Per bank write bursts
system.mem_ctrls.perBankRdBursts::2              8472                       # Per bank write bursts
system.mem_ctrls.perBankRdBursts::3              8377                       # Per bank write bursts
system.mem_ctrls.perBankRdBursts::4              7784                       # Per bank write bursts
system.mem_ctrls.perBankRdBursts::5              8588                       # Per bank write bursts
system.mem_ctrls.perBankRdBursts::6              7962                       # Per bank write bursts
system.mem_ctrls.perBankRdBursts::7              7925                       # Per bank write bursts
system.mem_ctrls.perBankRdBursts::8              7567                       # Per bank write bursts
system.mem_ctrls.perBankRdBursts::9              7974                       # Per bank write bursts
system.mem_ctrls.perBankRdBursts::10             7872                       # Per bank write bursts
system.mem_ctrls.perBankRdBursts::11             8376                       # Per bank write bursts
system.mem_ctrls.perBankRdBursts::12             8330                       # Per bank write bursts
system.mem_ctrls.perBankRdBursts::13             8570                       # Per bank write bursts
system.mem_ctrls.perBankRdBursts::14             8599                       # Per bank write bursts
system.mem_ctrls.perBankRdBursts::15             8264                       # Per bank write bursts
system.mem_ctrls.perBankWrBursts::0              5151                       # Per bank write bursts
system.mem_ctrls.perBankWrBursts::1              5699                       # Per bank write bursts
system.mem_ctrls.perBankWrBursts::2              5504                       # Per bank write bursts
system.mem_ctrls.perBankWrBursts::3              5532                       # Per bank write bursts
system.mem_ctrls.perBankWrBursts::4              5040                       # Per bank write bursts
system.mem_ctrls.perBankWrBursts::5              5746                       # Per bank write bursts
system.mem_ctrls.perBankWrBursts::6              5169                       # Per bank write bursts
system.mem_ctrls.perBankWrBursts::7              5172                       # Per bank write bursts
system.mem_ctrls.perBankWrBursts::8              4721                       # Per bank write bursts
system.mem_ctrls.perBankWrBursts::9              5074                       # Per bank write bursts
system.mem_ctrls.perBankWrBursts::10             5067                       # Per bank write bursts
system.mem_ctrls.perBankWrBursts::11             5478                       # Per bank write bursts
system.mem_ctrls.perBankWrBursts::12             5454                       # Per bank write bursts
system.mem_ctrls.perBankWrBursts::13             5510                       # Per bank write bursts
system.mem_ctrls.perBankWrBursts::14             5491                       # Per bank write bursts
system.mem_ctrls.perBankWrBursts::15             5300                       # Per bank write bursts
system.mem_ctrls.avgRdQLen                       1.00                       # Average read queue length when enqueuing
system.mem_ctrls.avgWrQLen                      24.76                       # Average write queue length when enqueuing
system.mem_ctrls.totQLat                   1963906750                       # Total ticks spent queuing
system.mem_ctrls.totBusLat                  658230000                       # Total ticks spent in databus transfers
system.mem_ctrls.totMemAccLat              4432269250                       # Total ticks spent from burst creation until serviced by the DRAM
system.mem_ctrls.avgQLat                     14918.09                       # Average queueing delay per DRAM burst
system.mem_ctrls.avgBusLat                    5000.00                       # Average bus latency per DRAM burst
system.mem_ctrls.avgMemAccLat                33668.09                       # Average memory access latency per DRAM burst
system.mem_ctrls.numRdRetry                         0                       # Number of times read queue was full causing retry
system.mem_ctrls.numWrRetry                         0                       # Number of times write queue was full causing retry
system.mem_ctrls.readRowHits                    60967                       # Number of row buffer hits during reads
system.mem_ctrls.writeRowHits                   31137                       # Number of row buffer hits during writes
system.mem_ctrls.readRowHitRate                 46.31                       # Row buffer hit rate for reads
system.mem_ctrls.writeRowHitRate                36.57                       # Row buffer hit rate for writes
system.mem_ctrls.readPktSize::0                     0                       # Read request sizes (log2)
system.mem_ctrls.readPktSize::1                     0                       # Read request sizes (log2)
system.mem_ctrls.readPktSize::2                     0                       # Read request sizes (log2)
system.mem_ctrls.readPktSize::3                     0                       # Read request sizes (log2)
system.mem_ctrls.readPktSize::4                     0                       # Read request sizes (log2)
system.mem_ctrls.readPktSize::5                     0                       # Read request sizes (log2)
system.mem_ctrls.readPktSize::6                131745                       # Read request sizes (log2)
system.mem_ctrls.writePktSize::0                    0                       # Write request sizes (log2)
system.mem_ctrls.writePktSize::1                    0                       # Write request sizes (log2)
system.mem_ctrls.writePktSize::2                    0                       # Write request sizes (log2)
system.mem_ctrls.writePktSize::3                    0                       # Write request sizes (log2)
system.mem_ctrls.writePktSize::4                    0                       # Write request sizes (log2)
system.mem_ctrls.writePktSize::5                    0                       # Write request sizes (log2)
system.mem_ctrls.writePktSize::6                85133                       # Write request sizes (log2)
system.mem_ctrls.rdQLenPdf::0                  131538                       # What read queue length does an incoming req see
system.mem_ctrls.rdQLenPdf::1                     108                       # What read queue length does an incoming req see
system.mem_ctrls.rdQLenPdf::2                       0                       # What read queue length does an incoming req see
system.mem_ctrls.rdQLenPdf::3                       0                       # What read queue length does an incoming req see
system.mem_ctrls.rdQLenPdf::4                       0                       # What read queue length does an incoming req see
system.mem_ctrls.rdQLenPdf::5                       0                       # What read queue length does an incoming req see
system.mem_ctrls.rdQLenPdf::6                       0                       # What read queue length does an incoming req see
system.mem_ctrls.rdQLenPdf::7                       0                       # What read queue length does an incoming req see
system.mem_ctrls.rdQLenPdf::8                       0                       # What read queue length does an incoming req see
system.mem_ctrls.rdQLenPdf::9                       0                       # What read queue length does an incoming req see
system.mem_ctrls.rdQLenPdf::10                      0                       # What read queue length does an incoming req see
system.mem_ctrls.rdQLenPdf::11                      0                       # What read queue length does an incoming req see
system.mem_ctrls.rdQLenPdf::12                      0                       # What read queue length does an incoming req see
system.mem_ctrls.rdQLenPdf::13                      0                       # What read queue length does an incoming req see
system.mem_ctrls.rdQLenPdf::14                      0                       # What read queue length does an incoming req see
system.mem_ctrls.rdQLenPdf::15                      0                       # What read queue length does an incoming req see
system.mem_ctrls.rdQLenPdf::16                      0                       # What read queue length does an incoming req see
system.mem_ctrls.rdQLenPdf::17                      0                       # What read queue length does an incoming req see
system.mem_ctrls.rdQLenPdf::18                      0                       # What read queue length does an incoming req see
system.mem_ctrls.rdQLenPdf::19                      0                       # What read queue length does an incoming req see
system.mem_ctrls.rdQLenPdf::20                      0                       # What read queue length does an incoming req see
system.mem_ctrls.rdQLenPdf::21                      0                       # What read queue length does an incoming req see
system.mem_ctrls.rdQLenPdf::22                      0                       # What read queue length does an incoming req see
system.mem_ctrls.rdQLenPdf::23                      0                       # What read queue length does an incoming req see
system.mem_ctrls.rdQLenPdf::24                      0                       # What read queue length does an incoming req see
system.mem_ctrls.rdQLenPdf::25                      0                       # What read queue length does an incoming req see
system.mem_ctrls.rdQLenPdf::26                      0                       # What read queue length does an incoming req see
system.mem_ctrls.rdQLenPdf::27                      0                       # What read queue length does an incoming req see
system.mem_ctrls.rdQLenPdf::28                      0                       # What read queue length does an incoming req see
system.mem_ctrls.rdQLenPdf::29                      0                       # What read queue length does an incoming req see
system.mem_ctrls.rdQLenPdf::30                      0                       # What read queue length does an incoming req see
system.mem_ctrls.rdQLenPdf::31                      0                       # What read queue length does an incoming req see
system.mem_ctrls.wrQLenPdf::0                       1                       # What write queue length does an incoming req see
system.mem_ctrls.wrQLenPdf::1                       1                       # What write queue length does an incoming req see
system.mem_ctrls.wrQLenPdf::2                       1                       # What write queue length does an incoming req see
system.mem_ctrls.wrQLenPdf::3                       1                       # What write queue length does an incoming req see
system.mem_ctrls.wrQLenPdf::4                       1                       # What write queue length does an incoming req see
system.mem_ctrls.wrQLenPdf::5                       1                       # What write queue length does an incoming req see
system.mem_ctrls.wrQLenPdf::6                       1                       # What write queue length does an incoming req see
system.mem_ctrls.wrQLenPdf::7                       1                       # What write queue length does an incoming req see
system.mem_ctrls.wrQLenPdf::8                       1                       # What write queue length does an incoming req see
system.mem_ctrls.wrQLenPdf::9                       1                       # What write queue length does an incoming req see
system.mem_ctrls.wrQLenPdf::10                      1                       # What write queue length does an incoming req see
system.mem_ctrls.wrQLenPdf::11                      1                       # What write queue length does an incoming req see
system.mem_ctrls.wrQLenPdf::12                      1                       # What write queue length does an incoming req see
system.mem_ctrls.wrQLenPdf::13                      1                       # What write queue length does an incoming req see
system.mem_ctrls.wrQLenPdf::14                      1                       # What write queue length does an incoming req see
system.mem_ctrls.wrQLenPdf::15                   3313                       # What write queue length does an incoming req see
system.mem_ctrls.wrQLenPdf::16                   3400                       # What write queue length does an incoming req see
system.mem_ctrls.wrQLenPdf::17                   4898                       # What write queue length does an incoming req see
system.mem_ctrls.wrQLenPdf::18                   4915                       # What write queue length does an incoming req see
system.mem_ctrls.wrQLenPdf::19                   4902                       # What write queue length does an incoming req see
system.mem_ctrls.wrQLenPdf::20                   4900                       # What write queue length does an incoming req see
system.mem_ctrls.wrQLenPdf::21                   4901                       # What write queue length does an incoming req see
system.mem_ctrls.wrQLenPdf::22                   4900                       # What write queue length does an incoming req see
system.mem_ctrls.wrQLenPdf::23                   4900                       # What write queue length does an incoming req see
system.mem_ctrls.wrQLenPdf::24                   4900                       # What write queue length does an incoming req see
system.mem_ctrls.wrQLenPdf::25                   4899                       # What write queue length does an incoming req see
system.mem_ctrls.wrQLenPdf::26                   4900                       # What write queue length does an incoming req see
system.mem_ctrls.wrQLenPdf::27                   4900                       # What write queue length does an incoming req see
system.mem_ctrls.wrQLenPdf::28                   4898                       # What write queue length does an incoming req see
system.mem_ctrls.wrQLenPdf::29                   4898                       # What write queue length does an incoming req see
system.mem_ctrls.wrQLenPdf::30                   4898                       # What write queue length does an incoming req see
system.mem_ctrls.wrQLenPdf::31                   4898                       # What write queue length does an incoming req see
system.mem_ctrls.wrQLenPdf::32                   4898                       # What write queue length does an incoming req see
system.mem_ctrls.wrQLenPdf::33                      0                       # What write queue length does an incoming req see
system.mem_ctrls.wrQLenPdf::34                      0                       # What write queue length does an incoming req see
system.mem_ctrls.wrQLenPdf::35                      0                       # What write queue length does an incoming req see
system.mem_ctrls.wrQLenPdf::36                      0                       # What write queue length does an incoming req see
system.mem_ctrls.wrQLenPdf::37                      0                       # What write queue length does an incoming req see
system.mem_ctrls.wrQLenPdf::38                      0                       # What write queue length does an incoming req see
system.mem_ctrls.wrQLenPdf::39                      0                       # What write queue length does an incoming req see
system.mem_ctrls.wrQLenPdf::40                      0                       # What write queue length does an incoming req see
system.mem_ctrls.wrQLenPdf::41                      0                       # What write queue length does an incoming req see
system.mem_ctrls.wrQLenPdf::42                      0                       # What write queue length does an incoming req see
system.mem_ctrls.wrQLenPdf::43                      0                       # What write queue length does an incoming req see
system.mem_ctrls.wrQLenPdf::44                      0                       # What write queue length does an incoming req see
system.mem_ctrls.wrQLenPdf::45                      0                       # What write queue length does an incoming req see
system.mem_ctrls.wrQLenPdf::46                      0                       # What write queue length does an incoming req see
system.mem_ctrls.wrQLenPdf::47                      0                       # What write queue length does an incoming req see
system.mem_ctrls.wrQLenPdf::48                      0                       # What write queue length does an incoming req see
system.mem_ctrls.wrQLenPdf::49                      0                       # What write queue length does an incoming req see
system.mem_ctrls.wrQLenPdf::50                      0                       # What write queue length does an incoming req see
system.mem_ctrls.wrQLenPdf::51                      0                       # What write queue length does an incoming req see
system.mem_ctrls.wrQLenPdf::52                      0                       # What write queue length does an incoming req see
system.mem_ctrls.wrQLenPdf::53                      0                       # What write queue length does an incoming req see
system.mem_ctrls.wrQLenPdf::54                      0                       # What write queue length does an incoming req see
system.mem_ctrls.wrQLenPdf::55                      0                       # What write queue length does an incoming req see
system.mem_ctrls.wrQLenPdf::56                      0                       # What write queue length does an incoming req see
system.mem_ctrls.wrQLenPdf::57                      0                       # What write queue length does an incoming req see
system.mem_ctrls.wrQLenPdf::58                      0                       # What write queue length does an incoming req see
system.mem_ctrls.wrQLenPdf::59                      0                       # What write queue length does an incoming req see
system.mem_ctrls.wrQLenPdf::60                      0                       # What write queue length does an incoming req see
system.mem_ctrls.wrQLenPdf::61                      0                       # What write queue length does an incoming req see
system.mem_ctrls.wrQLenPdf::62                      0                       # What write queue length does an incoming req see
system.mem_ctrls.wrQLenPdf::63                      0                       # What write queue length does an incoming req see
system.mem_ctrls.bytesPerActivate::samples       124650                       # Bytes accessed per row activation
system.mem_ctrls.bytesPerActivate::mean    111.289659                       # Bytes accessed per row activation
system.mem_ctrls.bytesPerActivate::gmean    84.760051                       # Bytes accessed per row activation
system.mem_ctrls.bytesPerActivate::stdev   138.914374                       # Bytes accessed per row activation
system.mem_ctrls.bytesPerActivate::0-127        94542     75.85%     75.85% # Bytes accessed per row activation
system.mem_ctrls.bytesPerActivate::128-255        20287     16.28%     92.12% # Bytes accessed per row activation
system.mem_ctrls.bytesPerActivate::256-383         3897      3.13%     95.25% # Bytes accessed per row activation
system.mem_ctrls.bytesPerActivate::384-511         1849      1.48%     96.73% # Bytes accessed per row activation
[...]
system.cpu.icache.tags.age_task_id_blocks_1024::4          254                       # Occupied blocks per task id
system.cpu.icache.tags.occ_task_id_percent::1024     0.992188                       # Percentage of cache occupancy per task id
system.cpu.icache.tags.tag_accesses          61059196                       # Number of tag accesses
system.cpu.icache.tags.data_accesses         61059196                       # Number of data accesses
system.cpu.icache.tags.power_state.pwrStateResidencyTicks::UNDEFINED 189780424000                       # Cumulative time (in ticks) in various power states
system.cpu.dtb.walker.power_state.pwrStateResidencyTicks::UNDEFINED 189780424000                       # Cumulative time (in ticks) in various power states
system.cpu.dtb.stage2_mmu.stage2_tlb.walker.power_state.pwrStateResidencyTicks::UNDEFINED 189780424000                       # Cumulative time (in ticks) in various power states
system.cpu.dcache.demand_hits::.cpu.data     35978129                       # number of demand (read+write) hits
system.cpu.dcache.demand_hits::total         35978129                       # number of demand (read+write) hits
system.cpu.dcache.overall_hits::.cpu.data     35978248                       # number of overall hits
system.cpu.dcache.overall_hits::total        35978248                       # number of overall hits
system.cpu.dcache.demand_misses::.cpu.data      1238147                       # number of demand (read+write) misses
system.cpu.dcache.demand_misses::total        1238147                       # number of demand (read+write) misses
system.cpu.dcache.overall_misses::.cpu.data      1238150                       # number of overall misses
system.cpu.dcache.overall_misses::total       1238150                       # number of overall misses
system.cpu.dcache.demand_miss_latency::.cpu.data  25852656000                       # number of demand (read+write) miss cycles
system.cpu.dcache.demand_miss_latency::total  25852656000                       # number of demand (read+write) miss cycles
system.cpu.dcache.overall_miss_latency::.cpu.data  25852656000                       # number of overall miss cycles
system.cpu.dcache.overall_miss_latency::total  25852656000                       # number of overall miss cycles
system.cpu.dcache.demand_accesses::.cpu.data     37216276                       # number of demand (read+write) accesses
system.cpu.dcache.demand_accesses::total     37216276                       # number of demand (read+write) accesses
system.cpu.dcache.overall_accesses::.cpu.data     37216398                       # number of overall (read+write) accesses
system.cpu.dcache.overall_accesses::total     37216398                       # number of overall (read+write) accesses
system.cpu.dcache.demand_miss_rate::.cpu.data     0.033269                       # miss rate for demand accesses
system.cpu.dcache.demand_miss_rate::total     0.033269                       # miss rate for demand accesses
system.cpu.dcache.overall_miss_rate::.cpu.data     0.033269                       # miss rate for overall accesses
system.cpu.dcache.overall_miss_rate::total     0.033269                       # miss rate for overall accesses
system.cpu.dcache.demand_avg_miss_latency::.cpu.data 20880.118435                       # average overall miss latency
system.cpu.dcache.demand_avg_miss_latency::total 20880.118435                       # average overall miss latency
system.cpu.dcache.overall_avg_miss_latency::.cpu.data 20880.067843                       # average overall miss latency
system.cpu.dcache.overall_avg_miss_latency::total 20880.067843                       # average overall miss latency
system.cpu.dcache.blocked_cycles::no_mshrs            0                       # number of cycles access was blocked
system.cpu.dcache.blocked_cycles::no_targets            0                       # number of cycles access was blocked
system.cpu.dcache.blocked::no_mshrs                 0                       # number of cycles access was blocked
system.cpu.dcache.blocked::no_targets               0                       # number of cycles access was blocked
system.cpu.dcache.avg_blocked_cycles::no_mshrs          nan                       # average number of cycles each access was blocked
system.cpu.dcache.avg_blocked_cycles::no_targets          nan                       # average number of cycles each access was blocked
system.cpu.dcache.writebacks::.writebacks       734432                       # number of writebacks
system.cpu.dcache.writebacks::total            734432                       # number of writebacks
system.cpu.dcache.demand_mshr_hits::.cpu.data            2                       # number of demand (read+write) MSHR hits
system.cpu.dcache.demand_mshr_hits::total            2                       # number of demand (read+write) MSHR hits
system.cpu.dcache.overall_mshr_hits::.cpu.data            2                       # number of overall MSHR hits
system.cpu.dcache.overall_mshr_hits::total            2                       # number of overall MSHR hits
system.cpu.dcache.demand_mshr_misses::.cpu.data      1238145                       # number of demand (read+write) MSHR misses
system.cpu.dcache.demand_mshr_misses::total      1238145                       # number of demand (read+write) MSHR misses
system.cpu.dcache.overall_mshr_misses::.cpu.data      1238148                       # number of overall MSHR misses
system.cpu.dcache.overall_mshr_misses::total      1238148                       # number of overall MSHR misses
system.cpu.dcache.demand_mshr_miss_latency::.cpu.data  24614358000                       # number of demand (read+write) MSHR miss cycles
system.cpu.dcache.demand_mshr_miss_latency::total  24614358000                       # number of demand (read+write) MSHR miss cycles
system.cpu.dcache.overall_mshr_miss_latency::.cpu.data  24614614000                       # number of overall MSHR miss cycles
system.cpu.dcache.overall_mshr_miss_latency::total  24614614000                       # number of overall MSHR miss cycles
system.cpu.dcache.demand_mshr_miss_rate::.cpu.data     0.033269                       # mshr miss rate for demand accesses
system.cpu.dcache.demand_mshr_miss_rate::total     0.033269                       # mshr miss rate for demand accesses
system.cpu.dcache.overall_mshr_miss_rate::.cpu.data     0.033269                       # mshr miss rate for overall accesses
system.cpu.dcache.overall_mshr_miss_rate::total     0.033269                       # mshr miss rate for overall accesses
system.cpu.dcache.demand_avg_mshr_miss_latency::.cpu.data 19880.028591                       # average overall mshr miss latency
system.cpu.dcache.demand_avg_mshr_miss_latency::total 19880.028591                       # average overall mshr miss latency
system.cpu.dcache.overall_avg_mshr_miss_latency::.cpu.data 19880.187183                       # average overall mshr miss latency
system.cpu.dcache.overall_avg_mshr_miss_latency::total 19880.187183                       # average overall mshr miss latency
system.cpu.dcache.replacements                1237124                       # number of replacements
system.cpu.dcache.ReadReq_hits::.cpu.data     26120695                       # number of ReadReq hits
system.cpu.dcache.ReadReq_hits::total        26120695                       # number of ReadReq hits
system.cpu.dcache.ReadReq_misses::.cpu.data       829464                       # number of ReadReq misses
system.cpu.dcache.ReadReq_misses::total        829464                       # number of ReadReq misses
system.cpu.dcache.ReadReq_miss_latency::.cpu.data  13688982000                       # number of ReadReq miss cycles
system.cpu.dcache.ReadReq_miss_latency::total  13688982000                       # number of ReadReq miss cycles
system.cpu.dcache.ReadReq_accesses::.cpu.data     26950159                       # number of ReadReq accesses(hits+misses)
system.cpu.dcache.ReadReq_accesses::total     26950159                       # number of ReadReq accesses(hits+misses)
system.cpu.dcache.ReadReq_miss_rate::.cpu.data     0.030778                       # miss rate for ReadReq accesses
system.cpu.dcache.ReadReq_miss_rate::total     0.030778                       # miss rate for ReadReq accesses
system.cpu.dcache.ReadReq_avg_miss_latency::.cpu.data 16503.407019                       # average ReadReq miss latency
system.cpu.dcache.ReadReq_avg_miss_latency::total 16503.407019                       # average ReadReq miss latency
system.cpu.dcache.ReadReq_mshr_hits::.cpu.data            2                       # number of ReadReq MSHR hits
system.cpu.dcache.ReadReq_mshr_hits::total            2                       # number of ReadReq MSHR hits
system.cpu.dcache.ReadReq_mshr_misses::.cpu.data       829462                       # number of ReadReq MSHR misses
system.cpu.dcache.ReadReq_mshr_misses::total       829462                       # number of ReadReq MSHR misses
system.cpu.dcache.ReadReq_mshr_miss_latency::.cpu.data  12859367000                       # number of ReadReq MSHR miss cycles
system.cpu.dcache.ReadReq_mshr_miss_latency::total  12859367000                       # number of ReadReq MSHR miss cycles
system.cpu.dcache.ReadReq_mshr_miss_rate::.cpu.data     0.030778                       # mshr miss rate for ReadReq accesses
system.cpu.dcache.ReadReq_mshr_miss_rate::total     0.030778                       # mshr miss rate for ReadReq accesses
system.cpu.dcache.ReadReq_avg_mshr_miss_latency::.cpu.data 15503.262356                       # average ReadReq mshr miss latency
system.cpu.dcache.ReadReq_avg_mshr_miss_latency::total 15503.262356                       # average ReadReq mshr miss latency
system.cpu.dcache.WriteReq_hits::.cpu.data      9857434                       # number of WriteReq hits
system.cpu.dcache.WriteReq_hits::total        9857434                       # number of WriteReq hits
system.cpu.dcache.WriteReq_misses::.cpu.data       408676                       # number of WriteReq misses
system.cpu.dcache.WriteReq_misses::total       408676                       # number of WriteReq misses
system.cpu.dcache.WriteReq_miss_latency::.cpu.data  12163452000                       # number of WriteReq miss cycles
system.cpu.dcache.WriteReq_miss_latency::total  12163452000                       # number of WriteReq miss cycles
system.cpu.dcache.WriteReq_accesses::.cpu.data     10266110                       # number of WriteReq accesses(hits+misses)
system.cpu.dcache.WriteReq_accesses::total     10266110                       # number of WriteReq accesses(hits+misses)
system.cpu.dcache.WriteReq_miss_rate::.cpu.data     0.039808                       # miss rate for WriteReq accesses
system.cpu.dcache.WriteReq_miss_rate::total     0.039808                       # miss rate for WriteReq accesses
system.cpu.dcache.WriteReq_avg_miss_latency::.cpu.data 29763.069033                       # average WriteReq miss latency
system.cpu.dcache.WriteReq_avg_miss_latency::total 29763.069033                       # average WriteReq miss latency
system.cpu.dcache.WriteReq_mshr_misses::.cpu.data       408676                       # number of WriteReq MSHR misses
system.cpu.dcache.WriteReq_mshr_misses::total       408676                       # number of WriteReq MSHR misses
system.cpu.dcache.WriteReq_mshr_miss_latency::.cpu.data  11754776000                       # number of WriteReq MSHR miss cycles
system.cpu.dcache.WriteReq_mshr_miss_latency::total  11754776000                       # number of WriteReq MSHR miss cycles
system.cpu.dcache.WriteReq_mshr_miss_rate::.cpu.data     0.039808                       # mshr miss rate for WriteReq accesses
system.cpu.dcache.WriteReq_mshr_miss_rate::total     0.039808                       # mshr miss rate for WriteReq accesses
system.cpu.dcache.WriteReq_avg_mshr_miss_latency::.cpu.data 28763.069033                       # average WriteReq mshr miss latency
system.cpu.dcache.WriteReq_avg_mshr_miss_latency::total 28763.069033                       # average WriteReq mshr miss latency
system.cpu.dcache.SoftPFReq_hits::.cpu.data          119                       # number of SoftPFReq hits
system.cpu.dcache.SoftPFReq_hits::total           119                       # number of SoftPFReq hits
system.cpu.dcache.SoftPFReq_misses::.cpu.data            3                       # number of SoftPFReq misses
system.cpu.dcache.SoftPFReq_misses::total            3                       # number of SoftPFReq misses
system.cpu.dcache.SoftPFReq_accesses::.cpu.data          122                       # number of SoftPFReq accesses(hits+misses)
system.cpu.dcache.SoftPFReq_accesses::total          122                       # number of SoftPFReq accesses(hits+misses)
system.cpu.dcache.SoftPFReq_miss_rate::.cpu.data     0.024590                       # miss rate for SoftPFReq accesses
system.cpu.dcache.SoftPFReq_miss_rate::total     0.024590                       # miss rate for SoftPFReq accesses
system.cpu.dcache.SoftPFReq_mshr_misses::.cpu.data            3                       # number of SoftPFReq MSHR misses
system.cpu.dcache.SoftPFReq_mshr_misses::total            3                       # number of SoftPFReq MSHR misses
system.cpu.dcache.SoftPFReq_mshr_miss_latency::.cpu.data       256000                       # number of SoftPFReq MSHR miss cycles
system.cpu.dcache.SoftPFReq_mshr_miss_latency::total       256000                       # number of SoftPFReq MSHR miss cycles
system.cpu.dcache.SoftPFReq_mshr_miss_rate::.cpu.data     0.024590                       # mshr miss rate for SoftPFReq accesses
system.cpu.dcache.SoftPFReq_mshr_miss_rate::total     0.024590                       # mshr miss rate for SoftPFReq accesses
system.cpu.dcache.SoftPFReq_avg_mshr_miss_latency::.cpu.data 85333.333333                       # average SoftPFReq mshr miss latency
system.cpu.dcache.SoftPFReq_avg_mshr_miss_latency::total 85333.333333                       # average SoftPFReq mshr miss latency
system.cpu.dcache.WriteLineReq_misses::.cpu.data            7                       # number of WriteLineReq misses
system.cpu.dcache.WriteLineReq_misses::total            7                       # number of WriteLineReq misses
system.cpu.dcache.WriteLineReq_miss_latency::.cpu.data       222000                       # number of WriteLineReq miss cycles
system.cpu.dcache.WriteLineReq_miss_latency::total       222000                       # number of WriteLineReq miss cycles
system.cpu.dcache.WriteLineReq_accesses::.cpu.data            7                       # number of WriteLineReq accesses(hits+misses)
system.cpu.dcache.WriteLineReq_accesses::total            7                       # number of WriteLineReq accesses(hits+misses)
system.cpu.dcache.WriteLineReq_miss_rate::.cpu.data            1                       # miss rate for WriteLineReq accesses
system.cpu.dcache.WriteLineReq_miss_rate::total            1                       # miss rate for WriteLineReq accesses
system.cpu.dcache.WriteLineReq_avg_miss_latency::.cpu.data 31714.285714                       # average WriteLineReq miss latency
system.cpu.dcache.WriteLineReq_avg_miss_latency::total 31714.285714                       # average WriteLineReq miss latency
system.cpu.dcache.WriteLineReq_mshr_misses::.cpu.data            7                       # number of WriteLineReq MSHR misses
system.cpu.dcache.WriteLineReq_mshr_misses::total            7                       # number of WriteLineReq MSHR misses
system.cpu.dcache.WriteLineReq_mshr_miss_latency::.cpu.data       215000                       # number of WriteLineReq MSHR miss cycles
system.cpu.dcache.WriteLineReq_mshr_miss_latency::total       215000                       # number of WriteLineReq MSHR miss cycles
system.cpu.dcache.WriteLineReq_mshr_miss_rate::.cpu.data            1                       # mshr miss rate for WriteLineReq accesses
system.cpu.dcache.WriteLineReq_mshr_miss_rate::total            1                       # mshr miss rate for WriteLineReq accesses
system.cpu.dcache.WriteLineReq_avg_mshr_miss_latency::.cpu.data 30714.285714                       # average WriteLineReq mshr miss latency
system.cpu.dcache.WriteLineReq_avg_mshr_miss_latency::total 30714.285714                       # average WriteLineReq mshr miss latency
system.cpu.dcache.LoadLockedReq_hits::.cpu.data           36                       # number of LoadLockedReq hits
system.cpu.dcache.LoadLockedReq_hits::total           36                       # number of LoadLockedReq hits
system.cpu.dcache.LoadLockedReq_accesses::.cpu.data           36                       # number of LoadLockedReq accesses(hits+misses)
system.cpu.dcache.LoadLockedReq_accesses::total           36                       # number of LoadLockedReq accesses(hits+misses)
system.cpu.dcache.StoreCondReq_hits::.cpu.data           36                       # number of StoreCondReq hits
system.cpu.dcache.StoreCondReq_hits::total           36                       # number of StoreCondReq hits
system.cpu.dcache.StoreCondReq_accesses::.cpu.data           36                       # number of StoreCondReq accesses(hits+misses)
system.cpu.dcache.StoreCondReq_accesses::total           36                       # number of StoreCondReq accesses(hits+misses)
system.cpu.dcache.power_state.pwrStateResidencyTicks::UNDEFINED 189780424000                       # Cumulative time (in ticks) in various power states
system.cpu.dcache.tags.tagsinuse          1022.418233                       # Cycle average of tags in use
system.cpu.dcache.tags.total_refs            37216468                       # Total number of references to valid blocks.
system.cpu.dcache.tags.sampled_refs           1238148                       # Sample count of references to valid blocks.
system.cpu.dcache.tags.avg_refs             30.058174                       # Average number of references to valid blocks.
system.cpu.dcache.tags.warmup_cycle            180500                       # Cycle when the warmup percentage was hit.
system.cpu.dcache.tags.occ_blocks::.cpu.data  1022.418233                       # Average occupied blocks per requestor
system.cpu.dcache.tags.occ_percent::.cpu.data     0.998455                       # Average percentage of cache occupancy
system.cpu.dcache.tags.occ_percent::total     0.998455                       # Average percentage of cache occupancy
system.cpu.dcache.tags.occ_task_id_blocks::1024         1024                       # Occupied blocks per task id
system.cpu.dcache.tags.age_task_id_blocks_1024::0           38                       # Occupied blocks per task id
system.cpu.dcache.tags.age_task_id_blocks_1024::1          638                       # Occupied blocks per task id
system.cpu.dcache.tags.age_task_id_blocks_1024::2          311                       # Occupied blocks per task id
system.cpu.dcache.tags.age_task_id_blocks_1024::3           37                       # Occupied blocks per task id
system.cpu.dcache.tags.occ_task_id_percent::1024            1                       # Percentage of cache occupancy per task id
system.cpu.dcache.tags.tag_accesses          75671088                       # Number of tag accesses
system.cpu.dcache.tags.data_accesses         75671088                       # Number of data accesses
system.cpu.dcache.tags.power_state.pwrStateResidencyTicks::UNDEFINED 189780424000                       # Cumulative time (in ticks) in various power states
system.cpu.power_state.pwrStateResidencyTicks::ON 189780424000                       # Cumulative time (in ticks) in various power states
system.cpu.itb.walker.power_state.pwrStateResidencyTicks::UNDEFINED 189780424000                       # Cumulative time (in ticks) in various power states
system.cpu.itb.stage2_mmu.stage2_tlb.walker.power_state.pwrStateResidencyTicks::UNDEFINED 189780424000                       # Cumulative time (in ticks) in various power states

---------- End Simulation Statistics   ----------
