
---------- Begin Simulation Statistics ----------
final_tick                                 3449659500                       # Number of ticks from beginning of simulation (restored from checkpoints and never reset)
host_inst_rate                                 573298                       # Simulator instruction rate (inst/s)
host_mem_usage                                 874044                       # Number of bytes of host memory used
host_op_rate                                   979733                       # Simulator op (including micro ops) rate (op/s)
host_seconds                                     2.82                       # Real time elapsed on the host
host_tick_rate                             1223775524                       # Simulator tick rate (ticks/s)
sim_freq                                 1000000000000                       # Frequency of simulated ticks
sim_insts                                     1615939                       # Number of instructions simulated
sim_ops                                       2761715                       # Number of ops (including micro ops) simulated
sim_seconds                                  0.003450                       # Number of seconds simulated
sim_ticks                                  3449659500                       # Number of ticks simulated
system.cpu.Branches                            277311                       # Number of branches fetched
system.cpu.committedInsts                     1615939                       # Number of instructions committed
system.cpu.committedOps                       2761715                       # Number of ops (including micro ops) committed
system.cpu.dtb.rdAccesses                      378792                       # TLB accesses on read requests
system.cpu.dtb.rdMisses                           875                       # TLB misses on read requests
system.cpu.dtb.wrAccesses                      149648                       # TLB accesses on write requests
system.cpu.dtb.wrMisses                            72                       # TLB misses on write requests
system.cpu.idle_fraction                     0.000000                       # Percentage of idle cycles
system.cpu.itb.rdAccesses                           0                       # TLB accesses on read requests
system.cpu.itb.rdMisses                             0                       # TLB misses on read requests
system.cpu.itb.wrAccesses                     2140017                       # TLB accesses on write requests
system.cpu.itb.wrMisses                           366                       # TLB misses on write requests
system.cpu.not_idle_fraction                 1.000000                       # Percentage of non-idle cycles
system.cpu.numCycles                          6899319                       # number of cpu cycles simulated
system.cpu.numWorkItemsCompleted                    0                       # number of work items this cpu completed
system.cpu.numWorkItemsStarted                      0                       # number of work items this cpu started
system.cpu.num_busy_cycles               6899318.998000                       # Number of busy cycles
system.cpu.num_cc_register_reads              1719531                       # number of times the CC registers were read
system.cpu.num_cc_register_writes             1363062                       # number of times the CC registers were written
system.cpu.num_conditional_control_insts       246263                       # number of instructions that are conditional controls
system.cpu.num_fp_alu_accesses                  87100                       # Number of float alu accesses
system.cpu.num_fp_insts                         87100                       # number of float instructions
system.cpu.num_fp_register_reads               113896                       # number of times the floating registers were read
system.cpu.num_fp_register_writes               71452                       # number of times the floating registers were written
system.cpu.num_func_calls                       20812                       # number of times a function call or return occured
system.cpu.num_idle_cycles                   0.002000                       # Number of idle cycles
system.cpu.num_int_alu_accesses               2693861                       # Number of integer alu accesses
system.cpu.num_int_insts                      2693861                       # number of integer instructions
system.cpu.num_int_register_reads             5467568                       # number of times the integer registers were read
system.cpu.num_int_register_writes            2326903                       # number of times the integer registers were written
system.cpu.num_load_insts                      378784                       # Number of load instructions
system.cpu.num_mem_refs                        528425                       # number of memory refs
system.cpu.num_store_insts                     149641                       # Number of store instructions
system.cpu.num_vec_alu_accesses                     0                       # Number of vector alu accesses
system.cpu.num_vec_insts                            0                       # number of vector instructions
system.cpu.num_vec_register_reads                   0                       # number of times the vector registers were read
system.cpu.num_vec_register_writes                  0                       # number of times the vector registers were written
system.cpu.op_class::No_OpClass                 17397      0.63%      0.63% # Class of executed instruction
system.cpu.op_class::IntAlu                   2148941     77.81%     78.44% # Class of executed instruction
system.cpu.op_class::IntMult                     1924      0.07%     78.51% # Class of executed instruction
system.cpu.op_class::IntDiv                     24307      0.88%     79.39% # Class of executed instruction
system.cpu.op_class::FloatAdd                    7748      0.28%     79.67% # Class of executed instruction
system.cpu.op_class::FloatCmp                       0      0.00%     79.67% # Class of executed instruction
system.cpu.op_class::FloatCvt                    1472      0.05%     79.72% # Class of executed instruction
system.cpu.op_class::FloatMult                   4000      0.14%     79.86% # Class of executed instruction
system.cpu.op_class::FloatMultAcc                   0      0.00%     79.86% # Class of executed instruction
system.cpu.op_class::FloatDiv                       0      0.00%     79.86% # Class of executed instruction
system.cpu.op_class::FloatMisc                      0      0.00%     79.86% # Class of executed instruction
system.cpu.op_class::FloatSqrt                      0      0.00%     79.86% # Class of executed instruction
system.cpu.op_class::SimdAdd                       18      0.00%     79.87% # Class of executed instruction
system.cpu.op_class::SimdAddAcc                     0      0.00%     79.87% # Class of executed instruction
system.cpu.op_class::SimdAlu                     4197      0.15%     80.02% # Class of executed instruction
system.cpu.op_class::SimdCmp                        0      0.00%     80.02% # Class of executed instruction
system.cpu.op_class::SimdCvt                      222      0.01%     80.03% # Class of executed instruction
system.cpu.op_class::SimdMisc                    4234      0.15%     80.18% # Class of executed instruction
system.cpu.op_class::SimdMult                       0      0.00%     80.18% # Class of executed instruction
system.cpu.op_class::SimdMultAcc                    0      0.00%     80.18% # Class of executed instruction
system.cpu.op_class::SimdShift                     27      0.00%     80.18% # Class of executed instruction
system.cpu.op_class::SimdShiftAcc                   0      0.00%     80.18% # Class of executed instruction
system.cpu.op_class::SimdDiv                        0      0.00%     80.18% # Class of executed instruction
system.cpu.op_class::SimdSqrt                       0      0.00%     80.18% # Class of executed instruction
system.cpu.op_class::SimdFloatAdd                8000      0.29%     80.47% # Class of executed instruction
system.cpu.op_class::SimdFloatAlu                   0      0.00%     80.47% # Class of executed instruction
system.cpu.op_class::SimdFloatCmp                   0      0.00%     80.47% # Class of executed instruction
system.cpu.op_class::SimdFloatCvt                4000      0.14%     80.61% # Class of executed instruction
system.cpu.op_class::SimdFloatDiv                2000      0.07%     80.69% # Class of executed instruction
system.cpu.op_class::SimdFloatMisc                  0      0.00%     80.69% # Class of executed instruction
system.cpu.op_class::SimdFloatMult               5000      0.18%     80.87% # Class of executed instruction
system.cpu.op_class::SimdFloatMultAcc               0      0.00%     80.87% # Class of executed instruction
system.cpu.op_class::SimdFloatSqrt                  0      0.00%     80.87% # Class of executed instruction
system.cpu.op_class::SimdReduceAdd                  0      0.00%     80.87% # Class of executed instruction
system.cpu.op_class::SimdReduceAlu                  0      0.00%     80.87% # Class of executed instruction
system.cpu.op_class::SimdReduceCmp                  0      0.00%     80.87% # Class of executed instruction
system.cpu.op_class::SimdFloatReduceAdd             0      0.00%     80.87% # Class of executed instruction
system.cpu.op_class::SimdFloatReduceCmp             0      0.00%     80.87% # Class of executed instruction
system.cpu.op_class::SimdAes                        0      0.00%     80.87% # Class of executed instruction
system.cpu.op_class::SimdAesMix                     0      0.00%     80.87% # Class of executed instruction
system.cpu.op_class::SimdSha1Hash                   0      0.00%     80.87% # Class of executed instruction
system.cpu.op_class::SimdSha1Hash2                  0      0.00%     80.87% # Class of executed instruction
system.cpu.op_class::SimdSha256Hash                 0      0.00%     80.87% # Class of executed instruction
system.cpu.op_class::SimdSha256Hash2                0      0.00%     80.87% # Class of executed instruction
system.cpu.op_class::SimdShaSigma2                  0      0.00%     80.87% # Class of executed instruction
system.cpu.op_class::SimdShaSigma3                  0      0.00%     80.87% # Class of executed instruction
system.cpu.op_class::SimdPredAlu                    0      0.00%     80.87% # Class of executed instruction
system.cpu.op_class::MemRead                   358584     12.98%     93.85% # Class of executed instruction
system.cpu.op_class::MemWrite                  135675      4.91%     98.76% # Class of executed instruction
system.cpu.op_class::FloatMemRead               20200      0.73%     99.49% # Class of executed instruction
system.cpu.op_class::FloatMemWrite              13966      0.51%    100.00% # Class of executed instruction
system.cpu.op_class::IprAccess                      0      0.00%    100.00% # Class of executed instruction
system.cpu.op_class::InstPrefetch                   0      0.00%    100.00% # Class of executed instruction
system.cpu.op_class::total                    2761912                       # Class of executed instruction
system.cpu.workload.numSyscalls                    64                       # Number of system calls
system.membus.snoop_filter.hit_multi_requests            0                       # Number of requests hitting in the snoop filter with multiple (>1) holders of the requested data.
system.membus.snoop_filter.hit_multi_snoops            0                       # Number of snoops hitting in the snoop filter with multiple (>1) holders of the requested data.
system.membus.snoop_filter.hit_single_requests            0                       # Number of requests hitting in the snoop filter with a single holder of the requested data.
system.membus.snoop_filter.hit_single_snoops            0                       # Number of snoops hitting in the snoop filter with a single holder of the requested data.
system.membus.snoop_filter.tot_requests          9192                       # Total number of requests made to the snoop filter.
system.membus.snoop_filter.tot_snoops               0                       # Total number of snoops made to the snoop filter.
system.tol2bus.snoop_filter.hit_multi_requests            1                       # Number of requests hitting in the snoop filter with multiple (>1) holders of the requested data.
system.tol2bus.snoop_filter.hit_multi_snoops            0                       # Number of snoops hitting in the snoop filter with multiple (>1) holders of the requested data.
system.tol2bus.snoop_filter.hit_single_requests        11059                       # Number of requests hitting in the snoop filter with a single holder of the requested data.
system.tol2bus.snoop_filter.hit_single_snoops            0                       # Number of snoops hitting in the snoop filter with a single holder of the requested data.
system.tol2bus.snoop_filter.tot_requests        23654                       # Total number of requests made to the snoop filter.
system.tol2bus.snoop_filter.tot_snoops              0                       # Total number of snoops made to the snoop filter.
system.membus.trans_dist::ReadResp               7646                       # Transaction distribution
system.membus.trans_dist::ReadExReq              1546                       # Transaction distribution
system.membus.trans_dist::ReadExResp             1546                       # Transaction distribution
system.membus.trans_dist::ReadSharedReq          7646                       # Transaction distribution
system.membus.pkt_count_system.l2.mem_side::system.mem_ctrls.port        18384                       # Packet count per connected master and slave (bytes)
system.membus.pkt_count_system.l2.mem_side::total        18384                       # Packet count per connected master and slave (bytes)
system.membus.pkt_count::total                  18384                       # Packet count per connected master and slave (bytes)
system.membus.pkt_size_system.l2.mem_side::system.mem_ctrls.port       588288                       # Cumulative packet size per connected master and slave (bytes)
system.membus.pkt_size_system.l2.mem_side::total       588288                       # Cumulative packet size per connected master and slave (bytes)
system.membus.pkt_size::total                  588288                       # Cumulative packet size per connected master and slave (bytes)
system.membus.snoops                                0                       # Total snoops (count)
system.membus.snoopTraffic                          0                       # Total snoop traffic (bytes)
system.membus.snoop_fanout::samples              9192                       # Request fanout histogram
system.membus.snoop_fanout::mean                    0                       # Request fanout histogram
system.membus.snoop_fanout::stdev                   0                       # Request fanout histogram
system.membus.snoop_fanout::underflows              0      0.00%      0.00% # Request fanout histogram
system.membus.snoop_fanout::0                    9192    100.00%    100.00% # Request fanout histogram
system.membus.snoop_fanout::1                       0      0.00%    100.00% # Request fanout histogram
system.membus.snoop_fanout::overflows               0      0.00%    100.00% # Request fanout histogram
system.membus.snoop_fanout::min_value               0                       # Request fanout histogram
system.membus.snoop_fanout::max_value               0                       # Request fanout histogram
system.membus.snoop_fanout::total                9192                       # Request fanout histogram
system.membus.reqLayer2.occupancy             9248500                       # Layer occupancy (ticks)
system.membus.reqLayer2.utilization               0.3                       # Layer utilization (%)
system.membus.respLayer1.occupancy           49226250                       # Layer occupancy (ticks)
system.membus.respLayer1.utilization              1.4                       # Layer utilization (%)
system.membus.power_state.pwrStateResidencyTicks::UNDEFINED   3449659500                       # Cumulative time (in ticks) in various power states
system.tol2bus.trans_dist::ReadResp             10662                       # Transaction distribution
system.tol2bus.trans_dist::WritebackDirty         2351                       # Transaction distribution
system.tol2bus.trans_dist::WritebackClean         1166                       # Transaction distribution
system.tol2bus.trans_dist::CleanEvict            7542                       # Transaction distribution
system.tol2bus.trans_dist::ReadExReq             1933                       # Transaction distribution
system.tol2bus.trans_dist::ReadExResp            1933                       # Transaction distribution
system.tol2bus.trans_dist::ReadCleanReq          1678                       # Transaction distribution
system.tol2bus.trans_dist::ReadSharedReq         8984                       # Transaction distribution
system.tol2bus.pkt_count_system.cpu.icache.mem_side::system.l2.cpu_side         4522                       # Packet count per connected master and slave (bytes)
system.tol2bus.pkt_count_system.cpu.dcache.mem_side::system.l2.cpu_side        31727                       # Packet count per connected master and slave (bytes)
system.tol2bus.pkt_count::total                 36249                       # Packet count per connected master and slave (bytes)
system.tol2bus.pkt_size_system.cpu.icache.mem_side::system.l2.cpu_side       182016                       # Cumulative packet size per connected master and slave (bytes)
system.tol2bus.pkt_size_system.cpu.dcache.mem_side::system.l2.cpu_side       849152                       # Cumulative packet size per connected master and slave (bytes)
system.tol2bus.pkt_size::total                1031168                       # Cumulative packet size per connected master and slave (bytes)
system.tol2bus.snoops                               0                       # Total snoops (count)
system.tol2bus.snoopTraffic                         0                       # Total snoop traffic (bytes)
system.tol2bus.snoop_fanout::samples            12595                       # Request fanout histogram
system.tol2bus.snoop_fanout::mean            0.000079                       # Request fanout histogram
system.tol2bus.snoop_fanout::stdev           0.008910                       # Request fanout histogram
system.tol2bus.snoop_fanout::underflows             0      0.00%      0.00% # Request fanout histogram
system.tol2bus.snoop_fanout::0                  12594     99.99%     99.99% # Request fanout histogram
system.tol2bus.snoop_fanout::1                      1      0.01%    100.00% # Request fanout histogram
system.tol2bus.snoop_fanout::2                      0      0.00%    100.00% # Request fanout histogram
system.tol2bus.snoop_fanout::3                      0      0.00%    100.00% # Request fanout histogram
system.tol2bus.snoop_fanout::4                      0      0.00%    100.00% # Request fanout histogram
system.tol2bus.snoop_fanout::overflows              0      0.00%    100.00% # Request fanout histogram
system.tol2bus.snoop_fanout::min_value              0                       # Request fanout histogram
system.tol2bus.snoop_fanout::max_value              1                       # Request fanout histogram
system.tol2bus.snoop_fanout::total              12595                       # Request fanout histogram
system.tol2bus.reqLayer0.occupancy           15344000                       # Layer occupancy (ticks)
system.tol2bus.reqLayer0.utilization              0.4                       # Layer utilization (%)
system.tol2bus.respLayer1.occupancy          16375500                       # Layer occupancy (ticks)
system.tol2bus.respLayer1.utilization             0.5                       # Layer utilization (%)
system.tol2bus.respLayer0.occupancy           2517000                       # Layer occupancy (ticks)
system.tol2bus.respLayer0.utilization             0.1                       # Layer utilization (%)
system.tol2bus.power_state.pwrStateResidencyTicks::UNDEFINED   3449659500                       # Cumulative time (in ticks) in various power states
system.voltage_domain.voltage                       1                       # Voltage in Volts
system.clk_domain.clock                          1000                       # Clock period in ticks
system.l2.demand_hits::.cpu.inst                   97                       # number of demand (read+write) hits
system.l2.demand_hits::.cpu.data                 3306                       # number of demand (read+write) hits
system.l2.demand_hits::total                     3403                       # number of demand (read+write) hits
system.l2.overall_hits::.cpu.inst                  97                       # number of overall hits
system.l2.overall_hits::.cpu.data                3306                       # number of overall hits
system.l2.overall_hits::total                    3403                       # number of overall hits
system.l2.demand_misses::.cpu.inst               1581                       # number of demand (read+write) misses
system.l2.demand_misses::.cpu.data               7611                       # number of demand (read+write) misses
system.l2.demand_misses::total                   9192                       # number of demand (read+write) misses
system.l2.overall_misses::.cpu.inst              1581                       # number of overall misses
system.l2.overall_misses::.cpu.data              7611                       # number of overall misses
system.l2.overall_misses::total                  9192                       # number of overall misses
system.l2.demand_miss_latency::.cpu.inst    121353500                       # number of demand (read+write) miss cycles
system.l2.demand_miss_latency::.cpu.data    605462000                       # number of demand (read+write) miss cycles
system.l2.demand_miss_latency::total        726815500                       # number of demand (read+write) miss cycles
system.l2.overall_miss_latency::.cpu.inst    121353500                       # number of overall miss cycles
system.l2.overall_miss_latency::.cpu.data    605462000                       # number of overall miss cycles
system.l2.overall_miss_latency::total       726815500                       # number of overall miss cycles
system.l2.demand_accesses::.cpu.inst             1678                       # number of demand (read+write) accesses
system.l2.demand_accesses::.cpu.data            10917                       # number of demand (read+write) accesses
system.l2.demand_accesses::total                12595                       # number of demand (read+write) accesses
system.l2.overall_accesses::.cpu.inst            1678                       # number of overall (read+write) accesses
system.l2.overall_accesses::.cpu.data           10917                       # number of overall (read+write) accesses
system.l2.overall_accesses::total               12595                       # number of overall (read+write) accesses
system.l2.demand_miss_rate::.cpu.inst        0.942193                       # miss rate for demand accesses
system.l2.demand_miss_rate::.cpu.data        0.697170                       # miss rate for demand accesses
system.l2.demand_miss_rate::total            0.729813                       # miss rate for demand accesses
system.l2.overall_miss_rate::.cpu.inst       0.942193                       # miss rate for overall accesses
system.l2.overall_miss_rate::.cpu.data       0.697170                       # miss rate for overall accesses
system.l2.overall_miss_rate::total           0.729813                       # miss rate for overall accesses
system.l2.demand_avg_miss_latency::.cpu.inst 76757.432005                       # average overall miss latency
system.l2.demand_avg_miss_latency::.cpu.data 79550.913152                       # average overall miss latency
system.l2.demand_avg_miss_latency::total 79070.441688                       # average overall miss latency
system.l2.overall_avg_miss_latency::.cpu.inst 76757.432005                       # average overall miss latency
system.l2.overall_avg_miss_latency::.cpu.data 79550.913152                       # average overall miss latency
system.l2.overall_avg_miss_latency::total 79070.441688                       # average overall miss latency
system.l2.blocked_cycles::no_mshrs                  0                       # number of cycles access was blocked
system.l2.blocked_cycles::no_targets                0                       # number of cycles access was blocked
system.l2.blocked::no_mshrs                         0                       # number of cycles access was blocked
system.l2.blocked::no_targets                       0                       # number of cycles access was blocked
system.l2.avg_blocked_cycles::no_mshrs            nan                       # average number of cycles each access was blocked
system.l2.avg_blocked_cycles::no_targets          nan                       # average number of cycles each access was blocked
system.l2.demand_mshr_misses::.cpu.inst          1581                       # number of demand (read+write) MSHR misses
system.l2.demand_mshr_misses::.cpu.data          7611                       # number of demand (read+write) MSHR misses
system.l2.demand_mshr_misses::total              9192                       # number of demand (read+write) MSHR misses
system.l2.overall_mshr_misses::.cpu.inst         1581                       # number of overall MSHR misses
system.l2.overall_mshr_misses::.cpu.data         7611                       # number of overall MSHR misses
system.l2.overall_mshr_misses::total             9192                       # number of overall MSHR misses
system.l2.demand_mshr_miss_latency::.cpu.inst    105543500                       # number of demand (read+write) MSHR miss cycles
system.l2.demand_mshr_miss_latency::.cpu.data    529352000                       # number of demand (read+write) MSHR miss cycles
system.l2.demand_mshr_miss_latency::total    634895500                       # number of demand (read+write) MSHR miss cycles
system.l2.overall_mshr_miss_latency::.cpu.inst    105543500                       # number of overall MSHR miss cycles
system.l2.overall_mshr_miss_latency::.cpu.data    529352000                       # number of overall MSHR miss cycles
system.l2.overall_mshr_miss_latency::total    634895500                       # number of overall MSHR miss cycles
system.l2.demand_mshr_miss_rate::.cpu.inst     0.942193                       # mshr miss rate for demand accesses
system.l2.demand_mshr_miss_rate::.cpu.data     0.697170                       # mshr miss rate for demand accesses
system.l2.demand_mshr_miss_rate::total       0.729813                       # mshr miss rate for demand accesses
system.l2.overall_mshr_miss_rate::.cpu.inst     0.942193                       # mshr miss rate for overall accesses
system.l2.overall_mshr_miss_rate::.cpu.data     0.697170                       # mshr miss rate for overall accesses
system.l2.overall_mshr_miss_rate::total      0.729813                       # mshr miss rate for overall accesses
system.l2.demand_avg_mshr_miss_latency::.cpu.inst 66757.432005                       # average overall mshr miss latency
system.l2.demand_avg_mshr_miss_latency::.cpu.data 69550.913152                       # average overall mshr miss latency
system.l2.demand_avg_mshr_miss_latency::total 69070.441688                       # average overall mshr miss latency
system.l2.overall_avg_mshr_miss_latency::.cpu.inst 66757.432005                       # average overall mshr miss latency
system.l2.overall_avg_mshr_miss_latency::.cpu.data 69550.913152                       # average overall mshr miss latency
system.l2.overall_avg_mshr_miss_latency::total 69070.441688                       # average overall mshr miss latency
system.l2.replacements                              0                       # number of replacements
system.l2.WritebackDirty_hits::.writebacks         2351                       # number of WritebackDirty hits
system.l2.WritebackDirty_hits::total             2351                       # number of WritebackDirty hits
system.l2.WritebackDirty_accesses::.writebacks         2351                       # number of WritebackDirty accesses(hits+misses)
system.l2.WritebackDirty_accesses::total         2351                       # number of WritebackDirty accesses(hits+misses)
system.l2.WritebackClean_hits::.writebacks         1166                       # number of WritebackClean hits
system.l2.WritebackClean_hits::total             1166                       # number of WritebackClean hits
system.l2.WritebackClean_accesses::.writebacks         1166                       # number of WritebackClean accesses(hits+misses)
system.l2.WritebackClean_accesses::total         1166                       # number of WritebackClean accesses(hits+misses)
system.l2.ReadExReq_hits::.cpu.data               387                       # number of ReadExReq hits
system.l2.ReadExReq_hits::total                   387                       # number of ReadExReq hits
system.l2.ReadExReq_misses::.cpu.data            1546                       # number of ReadExReq misses
system.l2.ReadExReq_misses::total                1546                       # number of ReadExReq misses
system.l2.ReadExReq_miss_latency::.cpu.data    118156000                       # number of ReadExReq miss cycles
system.l2.ReadExReq_miss_latency::total     118156000                       # number of ReadExReq miss cycles
system.l2.ReadExReq_accesses::.cpu.data          1933                       # number of ReadExReq accesses(hits+misses)
system.l2.ReadExReq_accesses::total              1933                       # number of ReadExReq accesses(hits+misses)
system.l2.ReadExReq_miss_rate::.cpu.data     0.799793                       # miss rate for ReadExReq accesses
system.l2.ReadExReq_miss_rate::total         0.799793                       # miss rate for ReadExReq accesses
system.l2.ReadExReq_avg_miss_latency::.cpu.data 76426.908150                       # average ReadExReq miss latency
system.l2.ReadExReq_avg_miss_latency::total 76426.908150                       # average ReadExReq miss latency
system.l2.ReadExReq_mshr_misses::.cpu.data         1546                       # number of ReadExReq MSHR misses
system.l2.ReadExReq_mshr_misses::total           1546                       # number of ReadExReq MSHR misses
system.l2.ReadExReq_mshr_miss_latency::.cpu.data    102696000                       # number of ReadExReq MSHR miss cycles
system.l2.ReadExReq_mshr_miss_latency::total    102696000                       # number of ReadExReq MSHR miss cycles
system.l2.ReadExReq_mshr_miss_rate::.cpu.data     0.799793                       # mshr miss rate for ReadExReq accesses
system.l2.ReadExReq_mshr_miss_rate::total     0.799793                       # mshr miss rate for ReadExReq accesses
system.l2.ReadExReq_avg_mshr_miss_latency::.cpu.data 66426.908150                       # average ReadExReq mshr miss latency
system.l2.ReadExReq_avg_mshr_miss_latency::total 66426.908150                       # average ReadExReq mshr miss latency
system.l2.ReadCleanReq_hits::.cpu.inst             97                       # number of ReadCleanReq hits
system.l2.ReadCleanReq_hits::total                 97                       # number of ReadCleanReq hits
system.l2.ReadCleanReq_misses::.cpu.inst         1581                       # number of ReadCleanReq misses
system.l2.ReadCleanReq_misses::total             1581                       # number of ReadCleanReq misses
system.l2.ReadCleanReq_miss_latency::.cpu.inst    121353500                       # number of ReadCleanReq miss cycles
system.l2.ReadCleanReq_miss_latency::total    121353500                       # number of ReadCleanReq miss cycles
system.l2.ReadCleanReq_accesses::.cpu.inst         1678                       # number of ReadCleanReq accesses(hits+misses)
system.l2.ReadCleanReq_accesses::total           1678                       # number of ReadCleanReq accesses(hits+misses)
system.l2.ReadCleanReq_miss_rate::.cpu.inst     0.942193                       # miss rate for ReadCleanReq accesses
system.l2.ReadCleanReq_miss_rate::total      0.942193                       # miss rate for ReadCleanReq accesses
system.l2.ReadCleanReq_avg_miss_latency::.cpu.inst 76757.432005                       # average ReadCleanReq miss latency
system.l2.ReadCleanReq_avg_miss_latency::total 76757.432005                       # average ReadCleanReq miss latency
system.l2.ReadCleanReq_mshr_misses::.cpu.inst         1581                       # number of ReadCleanReq MSHR misses
system.l2.ReadCleanReq_mshr_misses::total         1581                       # number of ReadCleanReq MSHR misses
system.l2.ReadCleanReq_mshr_miss_latency::.cpu.inst    105543500                       # number of ReadCleanReq MSHR miss cycles
system.l2.ReadCleanReq_mshr_miss_latency::total    105543500                       # number of ReadCleanReq MSHR miss cycles
system.l2.ReadCleanReq_mshr_miss_rate::.cpu.inst     0.942193                       # mshr miss rate for ReadCleanReq accesses
system.l2.ReadCleanReq_mshr_miss_rate::total     0.942193                       # mshr miss rate for ReadCleanReq accesses
system.l2.ReadCleanReq_avg_mshr_miss_latency::.cpu.inst 66757.432005                       # average ReadCleanReq mshr miss latency
system.l2.ReadCleanReq_avg_mshr_miss_latency::total 66757.432005                       # average ReadCleanReq mshr miss latency
system.l2.ReadSharedReq_hits::.cpu.data          2919                       # number of ReadSharedReq hits
system.l2.ReadSharedReq_hits::total              2919                       # number of ReadSharedReq hits
system.l2.ReadSharedReq_misses::.cpu.data         6065                       # number of ReadSharedReq misses
system.l2.ReadSharedReq_misses::total            6065                       # number of ReadSharedReq misses
system.l2.ReadSharedReq_miss_latency::.cpu.data    487306000                       # number of ReadSharedReq miss cycles
system.l2.ReadSharedReq_miss_latency::total    487306000                       # number of ReadSharedReq miss cycles
system.l2.ReadSharedReq_accesses::.cpu.data         8984                       # number of ReadSharedReq accesses(hits+misses)
system.l2.ReadSharedReq_accesses::total          8984                       # number of ReadSharedReq accesses(hits+misses)
system.l2.ReadSharedReq_miss_rate::.cpu.data     0.675089                       # miss rate for ReadSharedReq accesses
system.l2.ReadSharedReq_miss_rate::total     0.675089                       # miss rate for ReadSharedReq accesses
system.l2.ReadSharedReq_avg_miss_latency::.cpu.data 80347.238252                       # average ReadSharedReq miss latency
system.l2.ReadSharedReq_avg_miss_latency::total 80347.238252                       # average ReadSharedReq miss latency
system.l2.ReadSharedReq_mshr_misses::.cpu.data         6065                       # number of ReadSharedReq MSHR misses
system.l2.ReadSharedReq_mshr_misses::total         6065                       # number of ReadSharedReq MSHR misses
system.l2.ReadSharedReq_mshr_miss_latency::.cpu.data    426656000                       # number of ReadSharedReq MSHR miss cycles
system.l2.ReadSharedReq_mshr_miss_latency::total    426656000                       # number of ReadSharedReq MSHR miss cycles
system.l2.ReadSharedReq_mshr_miss_rate::.cpu.data     0.675089                       # mshr miss rate for ReadSharedReq accesses
system.l2.ReadSharedReq_mshr_miss_rate::total     0.675089                       # mshr miss rate for ReadSharedReq accesses
system.l2.ReadSharedReq_avg_mshr_miss_latency::.cpu.data 70347.238252                       # average ReadSharedReq mshr miss latency
system.l2.ReadSharedReq_avg_mshr_miss_latency::total 70347.238252                       # average ReadSharedReq mshr miss latency
system.l2.power_state.pwrStateResidencyTicks::UNDEFINED   3449659500                       # Cumulative time (in ticks) in various power states
system.l2.tags.tagsinuse                  5281.808998                       # Cycle average of tags in use
system.l2.tags.total_refs                       23653                       # Total number of references to valid blocks.
system.l2.tags.sampled_refs                      9192                       # Sample count of references to valid blocks.
system.l2.tags.avg_refs                      2.573216                       # Average number of references to valid blocks.
system.l2.tags.warmup_cycle                     77000                       # Cycle when the warmup percentage was hit.
system.l2.tags.occ_blocks::.cpu.inst       675.659576                       # Average occupied blocks per requestor
system.l2.tags.occ_blocks::.cpu.data      4606.149422                       # Average occupied blocks per requestor
system.l2.tags.occ_percent::.cpu.inst        0.020619                       # Average percentage of cache occupancy
system.l2.tags.occ_percent::.cpu.data        0.140569                       # Average percentage of cache occupancy
system.l2.tags.occ_percent::total            0.161188                       # Average percentage of cache occupancy
system.l2.tags.occ_task_id_blocks::1024          9192                       # Occupied blocks per task id
system.l2.tags.age_task_id_blocks_1024::0           61                       # Occupied blocks per task id
system.l2.tags.age_task_id_blocks_1024::1          383                       # Occupied blocks per task id
system.l2.tags.age_task_id_blocks_1024::2         2331                       # Occupied blocks per task id
system.l2.tags.age_task_id_blocks_1024::3         6417                       # Occupied blocks per task id
system.l2.tags.occ_task_id_percent::1024     0.280518                       # Percentage of cache occupancy per task id
system.l2.tags.tag_accesses                    198416                       # Number of tag accesses
system.l2.tags.data_accesses                   198416                       # Number of data accesses
system.l2.tags.power_state.pwrStateResidencyTicks::UNDEFINED   3449659500                       # Cumulative time (in ticks) in various power states
system.cpu_voltage_domain.voltage                   1                       # Voltage in Volts
system.mem_ctrls.bytes_read::.cpu.inst         101184                       # Number of bytes read from this memory
system.mem_ctrls.bytes_read::.cpu.data         487104                       # Number of bytes read from this memory
system.mem_ctrls.bytes_read::total             588288                       # Number of bytes read from this memory
system.mem_ctrls.bytes_inst_read::.cpu.inst       101184                       # Number of instructions bytes read from this memory
system.mem_ctrls.bytes_inst_read::total        101184                       # Number of instructions bytes read from this memory
system.mem_ctrls.num_reads::.cpu.inst            1581                       # Number of read requests responded to by this memory
system.mem_ctrls.num_reads::.cpu.data            7611                       # Number of read requests responded to by this memory
system.mem_ctrls.num_reads::total                9192                       # Number of read requests responded to by this memory
system.mem_ctrls.bw_read::.cpu.inst          29331591                       # Total read bandwidth from this memory (bytes/s)
system.mem_ctrls.bw_read::.cpu.data         141203501                       # Total read bandwidth from this memory (bytes/s)
system.mem_ctrls.bw_read::total             170535092                       # Total read bandwidth from this memory (bytes/s)
system.mem_ctrls.bw_inst_read::.cpu.inst     29331591                       # Instruction read bandwidth from this memory (bytes/s)
system.mem_ctrls.bw_inst_read::total         29331591                       # Instruction read bandwidth from this memory (bytes/s)
system.mem_ctrls.bw_total::.cpu.inst         29331591                       # Total bandwidth to/from this memory (bytes/s)
system.mem_ctrls.bw_total::.cpu.data        141203501                       # Total bandwidth to/from this memory (bytes/s)
system.mem_ctrls.bw_total::total            170535092                       # Total bandwidth to/from this memory (bytes/s)
system.mem_ctrls.avgPriority_.cpu.inst::samples      1581.00                       # Average QoS priority value for accepted requests
system.mem_ctrls.avgPriority_.cpu.data::samples      7611.00                       # Average QoS priority value for accepted requests
system.mem_ctrls.priorityMinLatency      0.000000018750                       # per QoS priority minimum request to response latency (s)
system.mem_ctrls.priorityMaxLatency      0.000000578500                       # per QoS priority maximum request to response latency (s)
system.mem_ctrls.numReadWriteTurnArounds            0                       # Number of turnarounds from READ to WRITE
system.mem_ctrls.numWriteReadTurnArounds            0                       # Number of turnarounds from WRITE to READ
system.mem_ctrls.numStayReadState               19270                       # Number of times bus staying in READ state
system.mem_ctrls.numStayWriteState                  0                       # Number of times bus staying in WRITE state
system.mem_ctrls.readReqs                        9192                       # Number of read requests accepted
system.mem_ctrls.writeReqs                          0                       # Number of write requests accepted
system.mem_ctrls.readBursts                      9192                       # Number of DRAM read bursts, including those serviced by the write queue
system.mem_ctrls.writeBursts                        0                       # Number of DRAM write bursts, including those merged in the write queue
system.mem_ctrls.servicedByWrQ                      0                       # Number of DRAM read bursts serviced by the write queue
system.mem_ctrls.mergedWrBursts                     0                       # Number of DRAM write bursts merged with an existing one
system.mem_ctrls.neitherReadNorWriteReqs            0                       # Number of requests that are neither read nor write
system.mem_ctrls.perBankRdBursts::0               671                       # Per bank write bursts
system.mem_ctrls.perBankRdBursts::1               513                       # Per bank write bursts
system.mem_ctrls.perBankRdBursts::2               542                       # Per bank write bursts
system.mem_ctrls.perBankRdBursts::3               643                       # Per bank write bursts
system.mem_ctrls.perBankRdBursts::4               659                       # Per bank write bursts
system.mem_ctrls.perBankRdBursts::5               597                       # Per bank write bursts
system.mem_ctrls.perBankRdBursts::6               474                       # Per bank write bursts
system.mem_ctrls.perBankRdBursts::7               408                       # Per bank write bursts
system.mem_ctrls.perBankRdBursts::8               488                       # Per bank write bursts
system.mem_ctrls.perBankRdBursts::9               458                       # Per bank write bursts
system.mem_ctrls.perBankRdBursts::10              433                       # Per bank write bursts
system.mem_ctrls.perBankRdBursts::11              605                       # Per bank write bursts
system.mem_ctrls.perBankRdBursts::12              569                       # Per bank write bursts
system.mem_ctrls.perBankRdBursts::13              649                       # Per bank write bursts
system.mem_ctrls.perBankRdBursts::14              747                       # Per bank write bursts
system.mem_ctrls.perBankRdBursts::15              736                       # Per bank write bursts
system.mem_ctrls.perBankWrBursts::0                 0                       # Per bank write bursts
system.mem_ctrls.perBankWrBursts::1                 0                       # Per bank write bursts
system.mem_ctrls.perBankWrBursts::2                 0                       # Per bank write bursts
system.mem_ctrls.perBankWrBursts::3                 0                       # Per bank write bursts
system.mem_ctrls.perBankWrBursts::4                 0                       # Per bank write bursts
system.mem_ctrls.perBankWrBursts::5                 0                       # Per bank write bursts
system.mem_ctrls.perBankWrBursts::6                 0                       # Per bank write bursts
system.mem_ctrls.perBankWrBursts::7                 0                       # Per bank write bursts
system.mem_ctrls.perBankWrBursts::8                 0                       # Per bank write bursts
system.mem_ctrls.perBankWrBursts::9                 0                       # Per bank write bursts
system.mem_ctrls.perBankWrBursts::10                0                       # Per bank write bursts
system.mem_ctrls.perBankWrBursts::11                0                       # Per bank write bursts
system.mem_ctrls.perBankWrBursts::12                0                       # Per bank write bursts
system.mem_ctrls.perBankWrBursts::13                0                       # Per bank write bursts
system.mem_ctrls.perBankWrBursts::14                0                       # Per bank write bursts
system.mem_ctrls.perBankWrBursts::15                0                       # Per bank write bursts
system.mem_ctrls.avgRdQLen                       1.00                       # Average read queue length when enqueuing
system.mem_ctrls.avgWrQLen                       0.00                       # Average write queue length when enqueuing
system.mem_ctrls.totQLat                     86946750                       # Total ticks spent queuing
system.mem_ctrls.totBusLat                   45960000                       # Total ticks spent in databus transfers
system.mem_ctrls.totMemAccLat               259296750                       # Total ticks spent from burst creation until serviced by the DRAM
system.mem_ctrls.avgQLat                      9458.96                       # Average queueing delay per DRAM burst
system.mem_ctrls.avgBusLat                    5000.00                       # Average bus latency per DRAM burst
system.mem_ctrls.avgMemAccLat                28208.96                       # Average memory access latency per DRAM burst
system.mem_ctrls.numRdRetry                         0                       # Number of times read queue was full causing retry
system.mem_ctrls.numWrRetry                         0                       # Number of times write queue was full causing retry
system.mem_ctrls.readRowHits                     5901                       # Number of row buffer hits during reads
system.mem_ctrls.writeRowHits                       0                       # Number of row buffer hits during writes
system.mem_ctrls.readRowHitRate                 64.20                       # Row buffer hit rate for reads
system.mem_ctrls.writeRowHitRate                  nan                       # Row buffer hit rate for writes
system.mem_ctrls.readPktSize::0                     0                       # Read request sizes (log2)
system.mem_ctrls.readPktSize::1                     0                       # Read request sizes (log2)
system.mem_ctrls.readPktSize::2                     0                       # Read request sizes (log2)
system.mem_ctrls.readPktSize::3                     0                       # Read request sizes (log2)
system.mem_ctrls.readPktSize::4                     0                       # Read request sizes (log2)
system.mem_ctrls.readPktSize::5                     0                       # Read request sizes (log2)
system.mem_ctrls.readPktSize::6                  9192                       # Read request sizes (log2)
system.mem_ctrls.writePktSize::0                    0                       # Write request sizes (log2)
system.mem_ctrls.writePktSize::1                    0                       # Write request sizes (log2)
system.mem_ctrls.writePktSize::2                    0                       # Write request sizes (log2)
system.mem_ctrls.writePktSize::3                    0                       # Write request sizes (log2)
system.mem_ctrls.writePktSize::4                    0                       # Write request sizes (log2)
system.mem_ctrls.writePktSize::5                    0                       # Write request sizes (log2)
system.mem_ctrls.writePktSize::6                    0                       # Write request sizes (log2)
system.mem_ctrls.rdQLenPdf::0                    9192                       # What read queue length does an incoming req see
system.mem_ctrls.rdQLenPdf::1                       0                       # What read queue length does an incoming req see
system.mem_ctrls.rdQLenPdf::2                       0                       # What read queue length does an incoming req see
system.mem_ctrls.rdQLenPdf::3                       0                       # What read queue length does an incoming req see
system.mem_ctrls.rdQLenPdf::4                       0                       # What read queue length does an incoming req see
system.mem_ctrls.rdQLenPdf::5                       0                       # What read queue length does an incoming req see
system.mem_ctrls.rdQLenPdf::6                       0                       # What read queue length does an incoming req see
system.mem_ctrls.rdQLenPdf::7                       0                       # What read queue length does an incoming req see
system.mem_ctrls.rdQLenPdf::8                       0                       # What read queue length does an incoming req see
system.mem_ctrls.rdQLenPdf::9                       0                       # What read queue length does an incoming req see
system.mem_ctrls.rdQLenPdf::10                      0                       # What read queue length does an incoming req see
system.mem_ctrls.rdQLenPdf::11                      0                       # What read queue length does an incoming req see
system.mem_ctrls.rdQLenPdf::12                      0                       # What read queue length does an incoming req see
system.mem_ctrls.rdQLenPdf::13                      0                       # What read queue length does an incoming req see
system.mem_ctrls.rdQLenPdf::14                      0                       # What read queue length does an incoming req see
system.mem_ctrls.rdQLenPdf::15                      0                       # What read queue length does an incoming req see
system.mem_ctrls.rdQLenPdf::16                      0                       # What read queue length does an incoming req see
system.mem_ctrls.rdQLenPdf::17                      0                       # What read queue length does an incoming req see
system.mem_ctrls.rdQLenPdf::18                      0                       # What read queue length does an incoming req see
system.mem_ctrls.rdQLenPdf::19                      0                       # What read queue length does an incoming req see
system.mem_ctrls.rdQLenPdf::20                      0                       # What read queue length does an incoming req see
system.mem_ctrls.rdQLenPdf::21                      0                       # What read queue length does an incoming req see
system.mem_ctrls.rdQLenPdf::22                      0                       # What read queue length does an incoming req see
system.mem_ctrls.rdQLenPdf::23                      0                       # What read queue length does an incoming req see
system.mem_ctrls.rdQLenPdf::24                      0                       # What read queue length does an incoming req see
system.mem_ctrls.rdQLenPdf::25                      0                       # What read queue length does an incoming req see
system.mem_ctrls.rdQLenPdf::26                      0                       # What read queue length does an incoming req see
system.mem_ctrls.rdQLenPdf::27                      0                       # What read queue length does an incoming req see
system.mem_ctrls.rdQLenPdf::28                      0                       # What read queue length does an incoming req see
system.mem_ctrls.rdQLenPdf::29                      0                       # What read queue length does an incoming req see
system.mem_ctrls.rdQLenPdf::30                      0                       # What read queue length does an incoming req see
system.mem_ctrls.rdQLenPdf::31                      0                       # What read queue length does an incoming req see
system.mem_ctrls.wrQLenPdf::0                       0                       # What write queue length does an incoming req see
system.mem_ctrls.wrQLenPdf::1                       0                       # What write queue length does an incoming req see
system.mem_ctrls.wrQLenPdf::2                       0                       # What write queue length does an incoming req see
system.mem_ctrls.wrQLenPdf::3                       0                       # What write queue length does an incoming req see
system.mem_ctrls.wrQLenPdf::4                       0                       # What write queue length does an incoming req see
system.mem_ctrls.wrQLenPdf::5                       0                       # What write queue length does an incoming req see
system.mem_ctrls.wrQLenPdf::6                       0                       # What write queue length does an incoming req see
system.mem_ctrls.wrQLenPdf::7                       0                       # What write queue length does an incoming req see
system.mem_ctrls.wrQLenPdf::8                       0                       # What write queue length does an incoming req see
system.mem_ctrls.wrQLenPdf::9                       0                       # What write queue length does an incoming req see
system.mem_ctrls.wrQLenPdf::10                      0                       # What write queue length does an incoming req see
system.mem_ctrls.wrQLenPdf::11                      0                       # What write queue length does an incoming req see
system.mem_ctrls.wrQLenPdf::12                      0                       # What write queue length does an incoming req see
system.mem_ctrls.wrQLenPdf::13                      0                       # What write queue length does an incoming req see
system.mem_ctrls.wrQLenPdf::14                      0                       # What write queue length does an incoming req see
system.mem_ctrls.wrQLenPdf::15                      0                       # What write queue length does an incoming req see
system.mem_ctrls.wrQLenPdf::16                      0                       # What write queue length does an incoming req see
system.mem_ctrls.wrQLenPdf::17                      0                       # What write queue length does an incoming req see
system.mem_ctrls.wrQLenPdf::18                      0                       # What write queue length does an incoming req see
system.mem_ctrls.wrQLenPdf::19                      0                       # What write queue length does an incoming req see
system.mem_ctrls.wrQLenPdf::20                      0                       # What write queue length does an incoming req see
system.mem_ctrls.wrQLenPdf::21                      0                       # What write queue length does an incoming req see
system.mem_ctrls.wrQLenPdf::22                      0                       # What write queue length does an incoming req see
system.mem_ctrls.wrQLenPdf::23                      0                       # What write queue length does an incoming req see
system.mem_ctrls.wrQLenPdf::24                      0                       # What write queue length does an incoming req see
system.mem_ctrls.wrQLenPdf::25                      0                       # What write queue length does an incoming req see
system.mem_ctrls.wrQLenPdf::26                      0                       # What write queue length does an incoming req see
system.mem_ctrls.wrQLenPdf::27                      0                       # What write queue length does an incoming req see
system.mem_ctrls.wrQLenPdf::28                      0                       # What write queue length does an incoming req see
system.mem_ctrls.wrQLenPdf::29                      0                       # What write queue length does an incoming req see
system.mem_ctrls.wrQLenPdf::30                      0                       # What write queue length does an incoming req see
system.mem_ctrls.wrQLenPdf::31                      0                       # What write queue length does an incoming req see
system.mem_ctrls.wrQLenPdf::32                      0                       # What write queue length does an incoming req see
system.mem_ctrls.wrQLenPdf::33                      0                       # What write queue length does an incoming req see
system.mem_ctrls.wrQLenPdf::34                      0                       # What write queue length does an incoming req see
system.mem_ctrls.wrQLenPdf::35                      0                       # What write queue length does an incoming req see
system.mem_ctrls.wrQLenPdf::36                      0                       # What write queue length does an incoming req see
system.mem_ctrls.wrQLenPdf::37                      0                       # What write queue length does an incoming req see
system.mem_ctrls.wrQLenPdf::38                      0                       # What write queue length does an incoming req see
system.mem_ctrls.wrQLenPdf::39                      0                       # What write queue length does an incoming req see
system.mem_ctrls.wrQLenPdf::40                      0                       # What write queue length does an incoming req see
system.mem_ctrls.wrQLenPdf::41                      0                       # What write queue length does an incoming req see
system.mem_ctrls.wrQLenPdf::42                      0                       # What write queue length does an incoming req see
system.mem_ctrls.wrQLenPdf::43                      0                       # What write queue length does an incoming req see
system.mem_ctrls.wrQLenPdf::44                      0                       # What write queue length does an incoming req see
system.mem_ctrls.wrQLenPdf::45                      0                       # What write queue length does an incoming req see
system.mem_ctrls.wrQLenPdf::46                      0                       # What write queue length does an incoming req see
system.mem_ctrls.wrQLenPdf::47                      0                       # What write queue length does an incoming req see
system.mem_ctrls.wrQLenPdf::48                      0                       # What write queue length does an incoming req see
system.mem_ctrls.wrQLenPdf::49                      0                       # What write queue length does an incoming req see
system.mem_ctrls.wrQLenPdf::50                      0                       # What write queue length does an incoming req see
system.mem_ctrls.wrQLenPdf::51                      0                       # What write queue length does an incoming req see
system.mem_ctrls.wrQLenPdf::52                      0                       # What write queue length does an incoming req see
system.mem_ctrls.wrQLenPdf::53                      0                       # What write queue length does an incoming req see
system.mem_ctrls.wrQLenPdf::54                      0                       # What write queue length does an incoming req see
system.mem_ctrls.wrQLenPdf::55                      0                       # What write queue length does an incoming req see
system.mem_ctrls.wrQLenPdf::56                      0                       # What write queue length does an incoming req see
system.mem_ctrls.wrQLenPdf::57                      0                       # What write queue length does an incoming req see
system.mem_ctrls.wrQLenPdf::58                      0                       # What write queue length does an incoming req see
system.mem_ctrls.wrQLenPdf::59                      0                       # What write queue length does an incoming req see
system.mem_ctrls.wrQLenPdf::60                      0                       # What write queue length does an incoming req see
system.mem_ctrls.wrQLenPdf::61                      0                       # What write queue length does an incoming req see
system.mem_ctrls.wrQLenPdf::62                      0                       # What write queue length does an incoming req see
system.mem_ctrls.wrQLenPdf::63                      0                       # What write queue length does an incoming req see
system.mem_ctrls.bytesPerActivate::samples         3290                       # Bytes accessed per row activation
system.mem_ctrls.bytesPerActivate::mean    178.791489                       # Bytes accessed per row activation
system.mem_ctrls.bytesPerActivate::gmean   117.931324                       # Bytes accessed per row activation
system.mem_ctrls.bytesPerActivate::stdev   221.654375                       # Bytes accessed per row activation
system.mem_ctrls.bytesPerActivate::0-127         1733     52.67%     52.67% # Bytes accessed per row activation
system.mem_ctrls.bytesPerActivate::128-255          933     28.36%     81.03% # Bytes accessed per row activation
system.mem_ctrls.bytesPerActivate::256-383          244      7.42%     88.45% # Bytes accessed per row activation
system.mem_ctrls.bytesPerActivate::384-511          112      3.40%     91.85% # Bytes accessed per row activation
system.mem_ctrls.bytesPerActivate::512-639           58      1.76%     93.62% # Bytes accessed per row activation
system.mem_ctrls.bytesPerActivate::640-767           35      1.06%     94.68% # Bytes accessed per row activation
system.mem_ctrls.bytesPerActivate::768-895           34      1.03%     95.71% # Bytes accessed per row activation
system.mem_ctrls.bytesPerActivate::896-1023           12      0.36%     96.08% # Bytes accessed per row activation
system.mem_ctrls.bytesPerActivate::1024-1151          129      3.92%    100.00% # Bytes accessed per row activation
system.mem_ctrls.bytesPerActivate::total         3290                       # Bytes accessed per row activation
system.mem_ctrls.bytesReadDRAM                 588288                       # Total number of bytes read from DRAM
system.mem_ctrls.bytesReadWrQ                       0                       # Total number of bytes read from write queue
system.mem_ctrls.bytesWritten                       0                       # Total number of bytes written to DRAM
system.mem_ctrls.bytesReadSys                  588288                       # Total read bytes from the system interface side
system.mem_ctrls.bytesWrittenSys                    0                       # Total written bytes from the system interface side
system.mem_ctrls.avgRdBW                       170.54                       # Average DRAM read bandwidth in MiByte/s
system.mem_ctrls.avgWrBW                         0.00                       # Average achieved write bandwidth in MiByte/s
system.mem_ctrls.avgRdBWSys                    170.54                       # Average system read bandwidth in MiByte/s
system.mem_ctrls.avgWrBWSys                      0.00                       # Average system write bandwidth in MiByte/s
system.mem_ctrls.peakBW                      12800.00                       # Theoretical peak bandwidth in MiByte/s
system.mem_ctrls.busUtil                         1.33                       # Data bus utilization in percentage
system.mem_ctrls.busUtilRead                     1.33                       # Data bus utilization in percentage for reads
system.mem_ctrls.busUtilWrite                    0.00                       # Data bus utilization in percentage for writes
system.mem_ctrls.totGap                    3449352500                       # Total gap between requests
system.mem_ctrls.avgGap                     375255.93                       # Average gap between requests
system.mem_ctrls.masterReadBytes::.cpu.inst       101184                       # Per-master bytes read from memory
system.mem_ctrls.masterReadBytes::.cpu.data       487104                       # Per-master bytes read from memory
system.mem_ctrls.masterReadRate::.cpu.inst 29331590.552632801235                       # Per-master bytes read from memory rate (Bytes/sec)
system.mem_ctrls.masterReadRate::.cpu.data 141203501.389050126076                       # Per-master bytes read from memory rate (Bytes/sec)
system.mem_ctrls.masterReadAccesses::.cpu.inst         1581                       # Per-master read serviced memory accesses
system.mem_ctrls.masterReadAccesses::.cpu.data         7611                       # Per-master read serviced memory accesses
system.mem_ctrls.masterReadTotalLat::.cpu.inst     40969250                       # Per-master read total memory access latency
system.mem_ctrls.masterReadTotalLat::.cpu.data    218327500                       # Per-master read total memory access latency
system.mem_ctrls.masterReadAvgLat::.cpu.inst     25913.50                       # Per-master read average memory access latency
system.mem_ctrls.masterReadAvgLat::.cpu.data     28685.78                       # Per-master read average memory access latency
system.mem_ctrls.pageHitRate                    64.20                       # Row buffer hit rate, read and write combined
system.mem_ctrls.rank1.actEnergy             12794880                       # Energy for activate commands per rank (pJ)
system.mem_ctrls.rank1.preEnergy              6796845                       # Energy for precharge commands per rank (pJ)
system.mem_ctrls.rank1.readEnergy            33450900                       # Energy for read commands per rank (pJ)
system.mem_ctrls.rank1.writeEnergy                  0                       # Energy for write commands per rank (pJ)
system.mem_ctrls.rank1.refreshEnergy     272285520.000000                       # Energy for refresh commands per rank (pJ)
system.mem_ctrls.rank1.actBackEnergy       1299319560                       # Energy for active background per rank (pJ)
system.mem_ctrls.rank1.preBackEnergy        230505600                       # Energy for precharge background per rank (pJ)
system.mem_ctrls.rank1.actPowerDownEnergy            0                       # Energy for active power-down per rank (pJ)
system.mem_ctrls.rank1.prePowerDownEnergy            0                       # Energy for precharge power-down per rank (pJ)
system.mem_ctrls.rank1.selfRefreshEnergy            0                       # Energy for self refresh per rank (pJ)
system.mem_ctrls.rank1.totalEnergy         1855153305                       # Total energy per rank (pJ)
system.mem_ctrls.rank1.averagePower        537.778672                       # Core power per rank (mW)
system.mem_ctrls.rank1.totalIdleTime                0                       # Total Idle time Per DRAM Rank
system.mem_ctrls.rank1.memoryStateTime::IDLE    587068500                       # Time in different power states
system.mem_ctrls.rank1.memoryStateTime::REF    115180000                       # Time in different power states
system.mem_ctrls.rank1.memoryStateTime::SREF            0                       # Time in different power states
system.mem_ctrls.rank1.memoryStateTime::PRE_PDN            0                       # Time in different power states
system.mem_ctrls.rank1.memoryStateTime::ACT   2747411000                       # Time in different power states
system.mem_ctrls.rank1.memoryStateTime::ACT_PDN            0                       # Time in different power states
system.mem_ctrls.rank0.actEnergy             10702860                       # Energy for activate commands per rank (pJ)
system.mem_ctrls.rank0.preEnergy              5688705                       # Energy for precharge commands per rank (pJ)
system.mem_ctrls.rank0.readEnergy            32179980                       # Energy for read commands per rank (pJ)
system.mem_ctrls.rank0.writeEnergy                  0                       # Energy for write commands per rank (pJ)
system.mem_ctrls.rank0.refreshEnergy     272285520.000000                       # Energy for refresh commands per rank (pJ)
system.mem_ctrls.rank0.actBackEnergy       1207539870                       # Energy for active background per rank (pJ)
system.mem_ctrls.rank0.preBackEnergy        307793760                       # Energy for precharge background per rank (pJ)
system.mem_ctrls.rank0.actPowerDownEnergy            0                       # Energy for active power-down per rank (pJ)
system.mem_ctrls.rank0.prePowerDownEnergy            0                       # Energy for precharge power-down per rank (pJ)
system.mem_ctrls.rank0.selfRefreshEnergy            0                       # Energy for self refresh per rank (pJ)
system.mem_ctrls.rank0.totalEnergy         1836190695                       # Total energy per rank (pJ)
system.mem_ctrls.rank0.averagePower        532.281721                       # Core power per rank (mW)
system.mem_ctrls.rank0.totalIdleTime                0                       # Total Idle time Per DRAM Rank
system.mem_ctrls.rank0.memoryStateTime::IDLE    788858500                       # Time in different power states
system.mem_ctrls.rank0.memoryStateTime::REF    115180000                       # Time in different power states
system.mem_ctrls.rank0.memoryStateTime::SREF            0                       # Time in different power states
system.mem_ctrls.rank0.memoryStateTime::PRE_PDN            0                       # Time in different power states
system.mem_ctrls.rank0.memoryStateTime::ACT   2545621000                       # Time in different power states
system.mem_ctrls.rank0.memoryStateTime::ACT_PDN            0                       # Time in different power states
system.mem_ctrls.power_state.pwrStateResidencyTicks::UNDEFINED   3449659500                       # Cumulative time (in ticks) in various power states
system.cpu_clk_domain.clock                       500                       # Clock period in ticks
system.cpu.icache.demand_hits::.cpu.inst      2138234                       # number of demand (read+write) hits
system.cpu.icache.demand_hits::total          2138234                       # number of demand (read+write) hits
system.cpu.icache.overall_hits::.cpu.inst      2138234                       # number of overall hits
system.cpu.icache.overall_hits::total         2138234                       # number of overall hits
system.cpu.icache.demand_misses::.cpu.inst         1678                       # number of demand (read+write) misses
system.cpu.icache.demand_misses::total           1678                       # number of demand (read+write) misses
system.cpu.icache.overall_misses::.cpu.inst         1678                       # number of overall misses
system.cpu.icache.overall_misses::total          1678                       # number of overall misses
system.cpu.icache.demand_miss_latency::.cpu.inst    126581500                       # number of demand (read+write) miss cycles
system.cpu.icache.demand_miss_latency::total    126581500                       # number of demand (read+write) miss cycles
system.cpu.icache.overall_miss_latency::.cpu.inst    126581500                       # number of overall miss cycles
system.cpu.icache.overall_miss_latency::total    126581500                       # number of overall miss cycles
system.cpu.icache.demand_accesses::.cpu.inst      2139912                       # number of demand (read+write) accesses
system.cpu.icache.demand_accesses::total      2139912                       # number of demand (read+write) accesses
system.cpu.icache.overall_accesses::.cpu.inst      2139912                       # number of overall (read+write) accesses
system.cpu.icache.overall_accesses::total      2139912                       # number of overall (read+write) accesses
system.cpu.icache.demand_miss_rate::.cpu.inst     0.000784                       # miss rate for demand accesses
system.cpu.icache.demand_miss_rate::total     0.000784                       # miss rate for demand accesses
system.cpu.icache.overall_miss_rate::.cpu.inst     0.000784                       # miss rate for overall accesses
system.cpu.icache.overall_miss_rate::total     0.000784                       # miss rate for overall accesses
system.cpu.icache.demand_avg_miss_latency::.cpu.inst 75435.935638                       # average overall miss latency
system.cpu.icache.demand_avg_miss_latency::total 75435.935638                       # average overall miss latency
system.cpu.icache.overall_avg_miss_latency::.cpu.inst 75435.935638                       # average overall miss latency
system.cpu.icache.overall_avg_miss_latency::total 75435.935638                       # average overall miss latency
system.cpu.icache.blocked_cycles::no_mshrs            0                       # number of cycles access was blocked
system.cpu.icache.blocked_cycles::no_targets            0                       # number of cycles access was blocked
system.cpu.icache.blocked::no_mshrs                 0                       # number of cycles access was blocked
system.cpu.icache.blocked::no_targets               0                       # number of cycles access was blocked
system.cpu.icache.avg_blocked_cycles::no_mshrs          nan                       # average number of cycles each access was blocked
system.cpu.icache.avg_blocked_cycles::no_targets          nan                       # average number of cycles each access was blocked
system.cpu.icache.writebacks::.writebacks         1166                       # number of writebacks
system.cpu.icache.writebacks::total              1166                       # number of writebacks
system.cpu.icache.demand_mshr_misses::.cpu.inst         1678                       # number of demand (read+write) MSHR misses
system.cpu.icache.demand_mshr_misses::total         1678                       # number of demand (read+write) MSHR misses
system.cpu.icache.overall_mshr_misses::.cpu.inst         1678                       # number of overall MSHR misses
system.cpu.icache.overall_mshr_misses::total         1678                       # number of overall MSHR misses
system.cpu.icache.demand_mshr_miss_latency::.cpu.inst    124903500                       # number of demand (read+write) MSHR miss cycles
system.cpu.icache.demand_mshr_miss_latency::total    124903500                       # number of demand (read+write) MSHR miss cycles
system.cpu.icache.overall_mshr_miss_latency::.cpu.inst    124903500                       # number of overall MSHR miss cycles
system.cpu.icache.overall_mshr_miss_latency::total    124903500                       # number of overall MSHR miss cycles
system.cpu.icache.demand_mshr_miss_rate::.cpu.inst     0.000784                       # mshr miss rate for demand accesses
system.cpu.icache.demand_mshr_miss_rate::total     0.000784                       # mshr miss rate for demand accesses
system.cpu.icache.overall_mshr_miss_rate::.cpu.inst     0.000784                       # mshr miss rate for overall accesses
system.cpu.icache.overall_mshr_miss_rate::total     0.000784                       # mshr miss rate for overall accesses
system.cpu.icache.demand_avg_mshr_miss_latency::.cpu.inst 74435.935638                       # average overall mshr miss latency
system.cpu.icache.demand_avg_mshr_miss_latency::total 74435.935638                       # average overall mshr miss latency
system.cpu.icache.overall_avg_mshr_miss_latency::.cpu.inst 74435.935638                       # average overall mshr miss latency
system.cpu.icache.overall_avg_mshr_miss_latency::total 74435.935638                       # average overall mshr miss latency
system.cpu.icache.replacements                   1166                       # number of replacements
system.cpu.icache.ReadReq_hits::.cpu.inst      2138234                       # number of ReadReq hits
system.cpu.icache.ReadReq_hits::total         2138234                       # number of ReadReq hits
system.cpu.icache.ReadReq_misses::.cpu.inst         1678                       # number of ReadReq misses
system.cpu.icache.ReadReq_misses::total          1678                       # number of ReadReq misses
system.cpu.icache.ReadReq_miss_latency::.cpu.inst    126581500                       # number of ReadReq miss cycles
system.cpu.icache.ReadReq_miss_latency::total    126581500                       # number of ReadReq miss cycles
system.cpu.icache.ReadReq_accesses::.cpu.inst      2139912                       # number of ReadReq accesses(hits+misses)
system.cpu.icache.ReadReq_accesses::total      2139912                       # number of ReadReq accesses(hits+misses)
system.cpu.icache.ReadReq_miss_rate::.cpu.inst     0.000784                       # miss rate for ReadReq accesses
system.cpu.icache.ReadReq_miss_rate::total     0.000784                       # miss rate for ReadReq accesses
system.cpu.icache.ReadReq_avg_miss_latency::.cpu.inst 75435.935638                       # average ReadReq miss latency
system.cpu.icache.ReadReq_avg_miss_latency::total 75435.935638                       # average ReadReq miss latency
system.cpu.icache.ReadReq_mshr_misses::.cpu.inst         1678                       # number of ReadReq MSHR misses
system.cpu.icache.ReadReq_mshr_misses::total         1678                       # number of ReadReq MSHR misses
system.cpu.icache.ReadReq_mshr_miss_latency::.cpu.inst    124903500                       # number of ReadReq MSHR miss cycles
system.cpu.icache.ReadReq_mshr_miss_latency::total    124903500                       # number of ReadReq MSHR miss cycles
system.cpu.icache.ReadReq_mshr_miss_rate::.cpu.inst     0.000784                       # mshr miss rate for ReadReq accesses
system.cpu.icache.ReadReq_mshr_miss_rate::total     0.000784                       # mshr miss rate for ReadReq accesses
system.cpu.icache.ReadReq_avg_mshr_miss_latency::.cpu.inst 74435.935638                       # average ReadReq mshr miss latency
system.cpu.icache.ReadReq_avg_mshr_miss_latency::total 74435.935638                       # average ReadReq mshr miss latency
system.cpu.icache.power_state.pwrStateResidencyTicks::UNDEFINED   3449659500                       # Cumulative time (in ticks) in various power states
system.cpu.icache.tags.tagsinuse           435.679244                       # Cycle average of tags in use
system.cpu.icache.tags.total_refs             2139912                       # Total number of references to valid blocks.
system.cpu.icache.tags.sampled_refs              1678                       # Sample count of references to valid blocks.
system.cpu.icache.tags.avg_refs           1275.275328                       # Average number of references to valid blocks.
system.cpu.icache.tags.warmup_cycle             87500                       # Cycle when the warmup percentage was hit.
system.cpu.icache.tags.occ_blocks::.cpu.inst   435.679244                       # Average occupied blocks per requestor
system.cpu.icache.tags.occ_percent::.cpu.inst     0.850936                       # Average percentage of cache occupancy
system.cpu.icache.tags.occ_percent::total     0.850936                       # Average percentage of cache occupancy
system.cpu.icache.tags.occ_task_id_blocks::1024          512                       # Occupied blocks per task id
system.cpu.icache.tags.age_task_id_blocks_1024::0           68                       # Occupied blocks per task id
system.cpu.icache.tags.age_task_id_blocks_1024::1          250                       # Occupied blocks per task id
system.cpu.icache.tags.age_task_id_blocks_1024::2          158                       # Occupied blocks per task id
system.cpu.icache.tags.age_task_id_blocks_1024::3           36                       # Occupied blocks per task id
system.cpu.icache.tags.occ_task_id_percent::1024            1                       # Percentage of cache occupancy per task id
system.cpu.icache.tags.tag_accesses           4281502                       # Number of tag accesses
system.cpu.icache.tags.data_accesses          4281502                       # Number of data accesses
system.cpu.icache.tags.power_state.pwrStateResidencyTicks::UNDEFINED   3449659500                       # Cumulative time (in ticks) in various power states
system.cpu.dtb.walker.power_state.pwrStateResidencyTicks::UNDEFINED   3449659500                       # Cumulative time (in ticks) in various power states
system.cpu.interrupts.clk_domain.clock           8000                       # Clock period in ticks
system.cpu.itb_walker_cache.blocked_cycles::no_mshrs            0                       # number of cycles access was blocked
system.cpu.itb_walker_cache.blocked_cycles::no_targets            0                       # number of cycles access was blocked
system.cpu.itb_walker_cache.blocked::no_mshrs            0                       # number of cycles access was blocked
system.cpu.itb_walker_cache.blocked::no_targets            0                       # number of cycles access was blocked
system.cpu.itb_walker_cache.avg_blocked_cycles::no_mshrs          nan                       # average number of cycles each access was blocked
system.cpu.itb_walker_cache.avg_blocked_cycles::no_targets          nan                       # average number of cycles each access was blocked
system.cpu.itb_walker_cache.replacements            0                       # number of replacements
system.cpu.itb_walker_cache.power_state.pwrStateResidencyTicks::UNDEFINED   3449659500                       # Cumulative time (in ticks) in various power states
system.cpu.itb_walker_cache.tags.tagsinuse            0                       # Cycle average of tags in use
system.cpu.itb_walker_cache.tags.total_refs            0                       # Total number of references to valid blocks.
system.cpu.itb_walker_cache.tags.sampled_refs            0                       # Sample count of references to valid blocks.
system.cpu.itb_walker_cache.tags.avg_refs          nan                       # Average number of references to valid blocks.
system.cpu.itb_walker_cache.tags.warmup_cycle            0                       # Cycle when the warmup percentage was hit.
system.cpu.itb_walker_cache.tags.tag_accesses            0                       # Number of tag accesses
system.cpu.itb_walker_cache.tags.data_accesses            0                       # Number of data accesses
system.cpu.itb_walker_cache.tags.power_state.pwrStateResidencyTicks::UNDEFINED   3449659500                       # Cumulative time (in ticks) in various power states
system.cpu.itb.walker.power_state.pwrStateResidencyTicks::UNDEFINED   3449659500                       # Cumulative time (in ticks) in various power states
system.cpu.dtb_walker_cache.blocked_cycles::no_mshrs            0                       # number of cycles access was blocked
system.cpu.dtb_walker_cache.blocked_cycles::no_targets            0                       # number of cycles access was blocked
system.cpu.dtb_walker_cache.blocked::no_mshrs            0                       # number of cycles access was blocked
system.cpu.dtb_walker_cache.blocked::no_targets            0                       # number of cycles access was blocked
system.cpu.dtb_walker_cache.avg_blocked_cycles::no_mshrs          nan                       # average number of cycles each access was blocked
system.cpu.dtb_walker_cache.avg_blocked_cycles::no_targets          nan                       # average number of cycles each access was blocked
system.cpu.dtb_walker_cache.replacements            0                       # number of replacements
system.cpu.dtb_walker_cache.power_state.pwrStateResidencyTicks::UNDEFINED   3449659500                       # Cumulative time (in ticks) in various power states
system.cpu.dtb_walker_cache.tags.tagsinuse            0                       # Cycle average of tags in use
system.cpu.dtb_walker_cache.tags.total_refs            0                       # Total number of references to valid blocks.
system.cpu.dtb_walker_cache.tags.sampled_refs            0                       # Sample count of references to valid blocks.
system.cpu.dtb_walker_cache.tags.avg_refs          nan                       # Average number of references to valid blocks.
system.cpu.dtb_walker_cache.tags.warmup_cycle            0                       # Cycle when the warmup percentage was hit.
system.cpu.dtb_walker_cache.tags.tag_accesses            0                       # Number of tag accesses
system.cpu.dtb_walker_cache.tags.data_accesses            0                       # Number of data accesses
system.cpu.dtb_walker_cache.tags.power_state.pwrStateResidencyTicks::UNDEFINED   3449659500                       # Cumulative time (in ticks) in various power states
system.cpu.dcache.demand_hits::.cpu.data       517326                       # number of demand (read+write) hits
system.cpu.dcache.demand_hits::total           517326                       # number of demand (read+write) hits
system.cpu.dcache.overall_hits::.cpu.data       517326                       # number of overall hits
system.cpu.dcache.overall_hits::total          517326                       # number of overall hits
system.cpu.dcache.demand_misses::.cpu.data        10917                       # number of demand (read+write) misses
system.cpu.dcache.demand_misses::total          10917                       # number of demand (read+write) misses
system.cpu.dcache.overall_misses::.cpu.data        10917                       # number of overall misses
system.cpu.dcache.overall_misses::total         10917                       # number of overall misses
system.cpu.dcache.demand_miss_latency::.cpu.data    667529000                       # number of demand (read+write) miss cycles
system.cpu.dcache.demand_miss_latency::total    667529000                       # number of demand (read+write) miss cycles
system.cpu.dcache.overall_miss_latency::.cpu.data    667529000                       # number of overall miss cycles
system.cpu.dcache.overall_miss_latency::total    667529000                       # number of overall miss cycles
system.cpu.dcache.demand_accesses::.cpu.data       528243                       # number of demand (read+write) accesses
system.cpu.dcache.demand_accesses::total       528243                       # number of demand (read+write) accesses
system.cpu.dcache.overall_accesses::.cpu.data       528243                       # number of overall (read+write) accesses
system.cpu.dcache.overall_accesses::total       528243                       # number of overall (read+write) accesses
system.cpu.dcache.demand_miss_rate::.cpu.data     0.020667                       # miss rate for demand accesses
system.cpu.dcache.demand_miss_rate::total     0.020667                       # miss rate for demand accesses
system.cpu.dcache.overall_miss_rate::.cpu.data     0.020667                       # miss rate for overall accesses
system.cpu.dcache.overall_miss_rate::total     0.020667                       # miss rate for overall accesses
system.cpu.dcache.demand_avg_miss_latency::.cpu.data 61145.827608                       # average overall miss latency
system.cpu.dcache.demand_avg_miss_latency::total 61145.827608                       # average overall miss latency
system.cpu.dcache.overall_avg_miss_latency::.cpu.data 61145.827608                       # average overall miss latency
system.cpu.dcache.overall_avg_miss_latency::total 61145.827608                       # average overall miss latency
system.cpu.dcache.blocked_cycles::no_mshrs            0                       # number of cycles access was blocked
system.cpu.dcache.blocked_cycles::no_targets            0                       # number of cycles access was blocked
system.cpu.dcache.blocked::no_mshrs                 0                       # number of cycles access was blocked
system.cpu.dcache.blocked::no_targets               0                       # number of cycles access was blocked
system.cpu.dcache.avg_blocked_cycles::no_mshrs          nan                       # average number of cycles each access was blocked
system.cpu.dcache.avg_blocked_cycles::no_targets          nan                       # average number of cycles each access was blocked
system.cpu.dcache.writebacks::.writebacks         2351                       # number of writebacks
system.cpu.dcache.writebacks::total              2351                       # number of writebacks
system.cpu.dcache.demand_mshr_misses::.cpu.data        10917                       # number of demand (read+write) MSHR misses
system.cpu.dcache.demand_mshr_misses::total        10917                       # number of demand (read+write) MSHR misses
system.cpu.dcache.overall_mshr_misses::.cpu.data        10917                       # number of overall MSHR misses
system.cpu.dcache.overall_mshr_misses::total        10917                       # number of overall MSHR misses
system.cpu.dcache.demand_mshr_miss_latency::.cpu.data    656612000                       # number of demand (read+write) MSHR miss cycles
system.cpu.dcache.demand_mshr_miss_latency::total    656612000                       # number of demand (read+write) MSHR miss cycles
system.cpu.dcache.overall_mshr_miss_latency::.cpu.data    656612000                       # number of overall MSHR miss cycles
system.cpu.dcache.overall_mshr_miss_latency::total    656612000                       # number of overall MSHR miss cycles
system.cpu.dcache.demand_mshr_miss_rate::.cpu.data     0.020667                       # mshr miss rate for demand accesses
system.cpu.dcache.demand_mshr_miss_rate::total     0.020667                       # mshr miss rate for demand accesses
system.cpu.dcache.overall_mshr_miss_rate::.cpu.data     0.020667                       # mshr miss rate for overall accesses
system.cpu.dcache.overall_mshr_miss_rate::total     0.020667                       # mshr miss rate for overall accesses
system.cpu.dcache.demand_avg_mshr_miss_latency::.cpu.data 60145.827608                       # average overall mshr miss latency
system.cpu.dcache.demand_avg_mshr_miss_latency::total 60145.827608                       # average overall mshr miss latency
system.cpu.dcache.overall_avg_mshr_miss_latency::.cpu.data 60145.827608                       # average overall mshr miss latency
system.cpu.dcache.overall_avg_mshr_miss_latency::total 60145.827608                       # average overall mshr miss latency
system.cpu.dcache.replacements                   9893                       # number of replacements
system.cpu.dcache.ReadReq_hits::.cpu.data       369637                       # number of ReadReq hits
system.cpu.dcache.ReadReq_hits::total          369637                       # number of ReadReq hits
system.cpu.dcache.ReadReq_misses::.cpu.data         8984                       # number of ReadReq misses
system.cpu.dcache.ReadReq_misses::total          8984                       # number of ReadReq misses
system.cpu.dcache.ReadReq_miss_latency::.cpu.data    540470000                       # number of ReadReq miss cycles
system.cpu.dcache.ReadReq_miss_latency::total    540470000                       # number of ReadReq miss cycles
system.cpu.dcache.ReadReq_accesses::.cpu.data       378621                       # number of ReadReq accesses(hits+misses)
system.cpu.dcache.ReadReq_accesses::total       378621                       # number of ReadReq accesses(hits+misses)
system.cpu.dcache.ReadReq_miss_rate::.cpu.data     0.023728                       # miss rate for ReadReq accesses
system.cpu.dcache.ReadReq_miss_rate::total     0.023728                       # miss rate for ReadReq accesses
system.cpu.dcache.ReadReq_avg_miss_latency::.cpu.data 60159.171861                       # average ReadReq miss latency
system.cpu.dcache.ReadReq_avg_miss_latency::total 60159.171861                       # average ReadReq miss latency
system.cpu.dcache.ReadReq_mshr_misses::.cpu.data         8984                       # number of ReadReq MSHR misses
system.cpu.dcache.ReadReq_mshr_misses::total         8984                       # number of ReadReq MSHR misses
system.cpu.dcache.ReadReq_mshr_miss_latency::.cpu.data    531486000                       # number of ReadReq MSHR miss cycles
system.cpu.dcache.ReadReq_mshr_miss_latency::total    531486000                       # number of ReadReq MSHR miss cycles
system.cpu.dcache.ReadReq_mshr_miss_rate::.cpu.data     0.023728                       # mshr miss rate for ReadReq accesses
system.cpu.dcache.ReadReq_mshr_miss_rate::total     0.023728                       # mshr miss rate for ReadReq accesses
system.cpu.dcache.ReadReq_avg_mshr_miss_latency::.cpu.data 59159.171861                       # average ReadReq mshr miss latency
system.cpu.dcache.ReadReq_avg_mshr_miss_latency::total 59159.171861                       # average ReadReq mshr miss latency
system.cpu.dcache.WriteReq_hits::.cpu.data       147689                       # number of WriteReq hits
system.cpu.dcache.WriteReq_hits::total         147689                       # number of WriteReq hits
system.cpu.dcache.WriteReq_misses::.cpu.data         1933                       # number of WriteReq misses
system.cpu.dcache.WriteReq_misses::total         1933                       # number of WriteReq misses
system.cpu.dcache.WriteReq_miss_latency::.cpu.data    127059000                       # number of WriteReq miss cycles
system.cpu.dcache.WriteReq_miss_latency::total    127059000                       # number of WriteReq miss cycles
system.cpu.dcache.WriteReq_accesses::.cpu.data       149622                       # number of WriteReq accesses(hits+misses)
system.cpu.dcache.WriteReq_accesses::total       149622                       # number of WriteReq accesses(hits+misses)
system.cpu.dcache.WriteReq_miss_rate::.cpu.data     0.012919                       # miss rate for WriteReq accesses
system.cpu.dcache.WriteReq_miss_rate::total     0.012919                       # miss rate for WriteReq accesses
system.cpu.dcache.WriteReq_avg_miss_latency::.cpu.data 65731.505432                       # average WriteReq miss latency
system.cpu.dcache.WriteReq_avg_miss_latency::total 65731.505432                       # average WriteReq miss latency
system.cpu.dcache.WriteReq_mshr_misses::.cpu.data         1933                       # number of WriteReq MSHR misses
system.cpu.dcache.WriteReq_mshr_misses::total         1933                       # number of WriteReq MSHR misses
system.cpu.dcache.WriteReq_mshr_miss_latency::.cpu.data    125126000                       # number of WriteReq MSHR miss cycles
system.cpu.dcache.WriteReq_mshr_miss_latency::total    125126000                       # number of WriteReq MSHR miss cycles
system.cpu.dcache.WriteReq_mshr_miss_rate::.cpu.data     0.012919                       # mshr miss rate for WriteReq accesses
system.cpu.dcache.WriteReq_mshr_miss_rate::total     0.012919                       # mshr miss rate for WriteReq accesses
system.cpu.dcache.WriteReq_avg_mshr_miss_latency::.cpu.data 64731.505432                       # average WriteReq mshr miss latency
system.cpu.dcache.WriteReq_avg_mshr_miss_latency::total 64731.505432                       # average WriteReq mshr miss latency
system.cpu.dcache.power_state.pwrStateResidencyTicks::UNDEFINED   3449659500                       # Cumulative time (in ticks) in various power states
system.cpu.dcache.tags.tagsinuse           981.609880                       # Cycle average of tags in use
system.cpu.dcache.tags.total_refs              528243                       # Total number of references to valid blocks.
system.cpu.dcache.tags.sampled_refs             10917                       # Sample count of references to valid blocks.
system.cpu.dcache.tags.avg_refs             48.387194                       # Average number of references to valid blocks.
system.cpu.dcache.tags.warmup_cycle            174500                       # Cycle when the warmup percentage was hit.
system.cpu.dcache.tags.occ_blocks::.cpu.data   981.609880                       # Average occupied blocks per requestor
system.cpu.dcache.tags.occ_percent::.cpu.data     0.958603                       # Average percentage of cache occupancy
system.cpu.dcache.tags.occ_percent::total     0.958603                       # Average percentage of cache occupancy
system.cpu.dcache.tags.occ_task_id_blocks::1024         1024                       # Occupied blocks per task id
system.cpu.dcache.tags.age_task_id_blocks_1024::0           59                       # Occupied blocks per task id
system.cpu.dcache.tags.age_task_id_blocks_1024::1          260                       # Occupied blocks per task id
system.cpu.dcache.tags.age_task_id_blocks_1024::2          697                       # Occupied blocks per task id
system.cpu.dcache.tags.age_task_id_blocks_1024::3            8                       # Occupied blocks per task id
system.cpu.dcache.tags.occ_task_id_percent::1024            1                       # Percentage of cache occupancy per task id
system.cpu.dcache.tags.tag_accesses           1067403                       # Number of tag accesses
system.cpu.dcache.tags.data_accesses          1067403                       # Number of data accesses
system.cpu.dcache.tags.power_state.pwrStateResidencyTicks::UNDEFINED   3449659500                       # Cumulative time (in ticks) in various power states
system.cpu.power_state.numTransitions               1                       # Number of power state transitions
system.cpu.power_state.pwrStateResidencyTicks::ON   3449659500                       # Cumulative time (in ticks) in various power states

---------- End Simulation Statistics   ----------
