
---------- Begin Simulation Statistics ----------
final_tick                                 4141664000                       # Number of ticks from beginning of simulation (restored from checkpoints and never reset)
host_inst_rate                                 116552                       # Simulator instruction rate (inst/s)
host_mem_usage                                 867160                       # Number of bytes of host memory used
host_op_rate                                   198714                       # Simulator op (including micro ops) rate (op/s)
host_seconds                                    13.58                       # Real time elapsed on the host
host_tick_rate                              305060177                       # Simulator tick rate (ticks/s)
sim_freq                                 1000000000000                       # Frequency of simulated ticks
sim_insts                                     1582355                       # Number of instructions simulated
sim_ops                                       2697849                       # Number of ops (including micro ops) simulated
sim_seconds                                  0.004142                       # Number of seconds simulated
sim_ticks                                  4141664000                       # Number of ticks simulated
system.cpu.branchPred.BTBCorrect                    0                       # Number of correct BTB predictions (this stat may not work properly.
system.cpu.branchPred.BTBHitPct                   nan                       # BTB Hit Percentage
system.cpu.branchPred.BTBHits                       0                       # Number of BTB hits
system.cpu.branchPred.BTBLookups                    0                       # Number of BTB lookups
system.cpu.branchPred.RASInCorrect                  0                       # Number of incorrect RAS predictions.
system.cpu.branchPred.condIncorrect                58                       # Number of conditional branches incorrect
system.cpu.branchPred.condPredicted                99                       # Number of conditional branches predicted
system.cpu.branchPred.indirectHits                  0                       # Number of indirect target hits.
system.cpu.branchPred.indirectLookups              25                       # Number of indirect predictor lookups.
system.cpu.branchPred.indirectMisses               25                       # Number of indirect misses.
system.cpu.branchPred.lookups                      99                       # Number of BP lookups
system.cpu.branchPred.usedRAS                       0                       # Number of times the RAS was used to get a target.
system.cpu.branchPredindirectMispredicted           15                       # Number of mispredicted indirect branches.
system.cpu.committedInsts                     1582355                       # Number of instructions committed
system.cpu.committedOps                       2697849                       # Number of ops (including micro ops) committed
system.cpu.cpi                               5.234810                       # CPI: cycles per instruction
system.cpu.discardedOps                        378716                       # Number of ops (including micro ops) which were discarded before commit
system.cpu.dtb.rdAccesses                      373335                       # TLB accesses on read requests
system.cpu.dtb.rdMisses                           777                       # TLB misses on read requests
system.cpu.dtb.wrAccesses                      144948                       # TLB accesses on write requests
system.cpu.dtb.wrMisses                            68                       # TLB misses on write requests
system.cpu.fetch2.amo_instructions                  0                       # Number of memory atomic instructions successfully decoded
system.cpu.fetch2.fp_instructions                   0                       # Number of floating point instructions successfully decoded
system.cpu.fetch2.int_instructions               6016                       # Number of integer instructions successfully decoded
system.cpu.fetch2.load_instructions                 0                       # Number of memory load instructions successfully decoded
system.cpu.fetch2.store_instructions                0                       # Number of memory store instructions successfully decoded
system.cpu.fetch2.vec_instructions                  0                       # Number of SIMD instructions successfully decoded
system.cpu.idleCycles                         1450126                       # Total number of cycles that the object has spent stopped
system.cpu.ipc                               0.191029                       # IPC: instructions per cycle
system.cpu.itb.rdAccesses                           0                       # TLB accesses on read requests
system.cpu.itb.rdMisses                             0                       # TLB misses on read requests
system.cpu.itb.wrAccesses                      532153                       # TLB accesses on write requests
system.cpu.itb.wrMisses                           266                       # TLB misses on write requests
system.cpu.numCycles                          8283328                       # number of cpu cycles simulated
system.cpu.numFetchSuspends                         0                       # Number of times Execute suspended instruction fetching
system.cpu.numWorkItemsCompleted                    0                       # number of work items this cpu completed
system.cpu.numWorkItemsStarted                      0                       # number of work items this cpu started
system.cpu.op_class_0::No_OpClass               17154      0.64%      0.64% # Class of committed instruction
system.cpu.op_class_0::IntAlu                 2104635     78.01%     78.65% # Class of committed instruction
system.cpu.op_class_0::IntMult                   1913      0.07%     78.72% # Class of committed instruction
system.cpu.op_class_0::IntDiv                   24008      0.89%     79.61% # Class of committed instruction
system.cpu.op_class_0::FloatAdd                  6618      0.25%     79.85% # Class of committed instruction
system.cpu.op_class_0::FloatCmp                     0      0.00%     79.85% # Class of committed instruction
system.cpu.op_class_0::FloatCvt                  1232      0.05%     79.90% # Class of committed instruction
system.cpu.op_class_0::FloatMult                 4000      0.15%     80.05% # Class of committed instruction
system.cpu.op_class_0::FloatMultAcc                 0      0.00%     80.05% # Class of committed instruction
system.cpu.op_class_0::FloatDiv                     0      0.00%     80.05% # Class of committed instruction
system.cpu.op_class_0::FloatMisc                    0      0.00%     80.05% # Class of committed instruction
system.cpu.op_class_0::FloatSqrt                    0      0.00%     80.05% # Class of committed instruction
system.cpu.op_class_0::SimdAdd                     16      0.00%     80.05% # Class of committed instruction
system.cpu.op_class_0::SimdAddAcc                   0      0.00%     80.05% # Class of committed instruction
system.cpu.op_class_0::SimdAlu                   4186      0.16%     80.20% # Class of committed instruction
system.cpu.op_class_0::SimdCmp                      0      0.00%     80.20% # Class of committed instruction
system.cpu.op_class_0::SimdCvt                    174      0.01%     80.21% # Class of committed instruction
system.cpu.op_class_0::SimdMisc                  4165      0.15%     80.36% # Class of committed instruction
system.cpu.op_class_0::SimdMult                     0      0.00%     80.36% # Class of committed instruction
system.cpu.op_class_0::SimdMultAcc                  0      0.00%     80.36% # Class of committed instruction
system.cpu.op_class_0::SimdShift                   24      0.00%     80.36% # Class of committed instruction
system.cpu.op_class_0::SimdShiftAcc                 0      0.00%     80.36% # Class of committed instruction
system.cpu.op_class_0::SimdDiv                      0      0.00%     80.36% # Class of committed instruction
system.cpu.op_class_0::SimdSqrt                     0      0.00%     80.36% # Class of committed instruction
system.cpu.op_class_0::SimdFloatAdd              6000      0.22%     80.59% # Class of committed instruction
system.cpu.op_class_0::SimdFloatAlu                 0      0.00%     80.59% # Class of committed instruction
system.cpu.op_class_0::SimdFloatCmp                 0      0.00%     80.59% # Class of committed instruction
system.cpu.op_class_0::SimdFloatCvt              4000      0.15%     80.74% # Class of committed instruction
system.cpu.op_class_0::SimdFloatDiv              2000      0.07%     80.81% # Class of committed instruction
system.cpu.op_class_0::SimdFloatMisc                0      0.00%     80.81% # Class of committed instruction
system.cpu.op_class_0::SimdFloatMult             4000      0.15%     80.96% # Class of committed instruction
system.cpu.op_class_0::SimdFloatMultAcc             0      0.00%     80.96% # Class of committed instruction
system.cpu.op_class_0::SimdFloatSqrt                0      0.00%     80.96% # Class of committed instruction
system.cpu.op_class_0::SimdReduceAdd                0      0.00%     80.96% # Class of committed instruction
system.cpu.op_class_0::SimdReduceAlu                0      0.00%     80.96% # Class of committed instruction
system.cpu.op_class_0::SimdReduceCmp                0      0.00%     80.96% # Class of committed instruction
system.cpu.op_class_0::SimdFloatReduceAdd            0      0.00%     80.96% # Class of committed instruction
system.cpu.op_class_0::SimdFloatReduceCmp            0      0.00%     80.96% # Class of committed instruction
system.cpu.op_class_0::SimdAes                      0      0.00%     80.96% # Class of committed instruction
system.cpu.op_class_0::SimdAesMix                   0      0.00%     80.96% # Class of committed instruction
system.cpu.op_class_0::SimdSha1Hash                 0      0.00%     80.96% # Class of committed instruction
system.cpu.op_class_0::SimdSha1Hash2                0      0.00%     80.96% # Class of committed instruction
system.cpu.op_class_0::SimdSha256Hash               0      0.00%     80.96% # Class of committed instruction
system.cpu.op_class_0::SimdSha256Hash2              0      0.00%     80.96% # Class of committed instruction
system.cpu.op_class_0::SimdShaSigma2                0      0.00%     80.96% # Class of committed instruction
system.cpu.op_class_0::SimdShaSigma3                0      0.00%     80.96% # Class of committed instruction
system.cpu.op_class_0::SimdPredAlu                  0      0.00%     80.96% # Class of committed instruction
system.cpu.op_class_0::MemRead                 352236     13.06%     94.01% # Class of committed instruction
system.cpu.op_class_0::MemWrite                132387      4.91%     98.92% # Class of committed instruction
system.cpu.op_class_0::FloatMemRead             16636      0.62%     99.54% # Class of committed instruction
system.cpu.op_class_0::FloatMemWrite            12465      0.46%    100.00% # Class of committed instruction
system.cpu.op_class_0::IprAccess                    0      0.00%    100.00% # Class of committed instruction
system.cpu.op_class_0::InstPrefetch                 0      0.00%    100.00% # Class of committed instruction
system.cpu.op_class_0::total                  2697849                       # Class of committed instruction
system.cpu.tickCycles                         6833202                       # Number of cycles that the object actually ticked
system.cpu.workload.numSyscalls                    58                       # Number of system calls
system.membus.snoop_filter.hit_multi_requests            0                       # Number of requests hitting in the snoop filter with multiple (>1) holders of the requested data.
system.membus.snoop_filter.hit_multi_snoops            0                       # Number of snoops hitting in the snoop filter with multiple (>1) holders of the requested data.
system.membus.snoop_filter.hit_single_requests            0                       # Number of requests hitting in the snoop filter with a single holder of the requested data.
system.membus.snoop_filter.hit_single_snoops            0                       # Number of snoops hitting in the snoop filter with a single holder of the requested data.
system.membus.snoop_filter.tot_requests          9167                       # Total number of requests made to the snoop filter.
system.membus.snoop_filter.tot_snoops               0                       # Total number of snoops made to the snoop filter.
system.tol2bus.snoop_filter.hit_multi_requests            3                       # Number of requests hitting in the snoop filter with multiple (>1) holders of the requested data.
system.tol2bus.snoop_filter.hit_multi_snoops            0                       # Number of snoops hitting in the snoop filter with multiple (>1) holders of the requested data.
system.tol2bus.snoop_filter.hit_single_requests        10782                       # Number of requests hitting in the snoop filter with a single holder of the requested data.
system.tol2bus.snoop_filter.hit_single_snoops            0                       # Number of snoops hitting in the snoop filter with a single holder of the requested data.
system.tol2bus.snoop_filter.tot_requests        23101                       # Total number of requests made to the snoop filter.
system.tol2bus.snoop_filter.tot_snoops              0                       # Total number of snoops made to the snoop filter.
system.membus.trans_dist::ReadResp               7653                       # Transaction distribution
system.membus.trans_dist::ReadExReq              1514                       # Transaction distribution
system.membus.trans_dist::ReadExResp             1514                       # Transaction distribution
system.membus.trans_dist::ReadSharedReq          7653                       # Transaction distribution
system.membus.pkt_count_system.l2.mem_side::system.mem_ctrls.port        18334                       # Packet count per connected master and slave (bytes)
system.membus.pkt_count_system.l2.mem_side::total        18334                       # Packet count per connected master and slave (bytes)
system.membus.pkt_count::total                  18334                       # Packet count per connected master and slave (bytes)
system.membus.pkt_size_system.l2.mem_side::system.mem_ctrls.port       586688                       # Cumulative packet size per connected master and slave (bytes)
system.membus.pkt_size_system.l2.mem_side::total       586688                       # Cumulative packet size per connected master and slave (bytes)
system.membus.pkt_size::total                  586688                       # Cumulative packet size per connected master and slave (bytes)
system.membus.snoops                                0                       # Total snoops (count)
system.membus.snoopTraffic                          0                       # Total snoop traffic (bytes)
system.membus.snoop_fanout::samples              9167                       # Request fanout histogram
system.membus.snoop_fanout::mean                    0                       # Request fanout histogram
system.membus.snoop_fanout::stdev                   0                       # Request fanout histogram
system.membus.snoop_fanout::underflows              0      0.00%      0.00% # Request fanout histogram
system.membus.snoop_fanout::0                    9167    100.00%    100.00% # Request fanout histogram
system.membus.snoop_fanout::1                       0      0.00%    100.00% # Request fanout histogram
system.membus.snoop_fanout::overflows               0      0.00%    100.00% # Request fanout histogram
system.membus.snoop_fanout::min_value               0                       # Request fanout histogram
system.membus.snoop_fanout::max_value               0                       # Request fanout histogram
system.membus.snoop_fanout::total                9167                       # Request fanout histogram
system.membus.reqLayer2.occupancy            11296000                       # Layer occupancy (ticks)
system.membus.reqLayer2.utilization               0.3                       # Layer utilization (%)
system.membus.respLayer1.occupancy           49095750                       # Layer occupancy (ticks)
system.membus.respLayer1.utilization              1.2                       # Layer utilization (%)
system.membus.power_state.pwrStateResidencyTicks::UNDEFINED   4141664000                       # Cumulative time (in ticks) in various power states
system.tol2bus.trans_dist::ReadResp             10436                       # Transaction distribution
system.tol2bus.trans_dist::WritebackDirty         2209                       # Transaction distribution
system.tol2bus.trans_dist::WritebackClean         1249                       # Transaction distribution
system.tol2bus.trans_dist::CleanEvict            7324                       # Transaction distribution
system.tol2bus.trans_dist::ReadExReq             1882                       # Transaction distribution
system.tol2bus.trans_dist::ReadExResp            1882                       # Transaction distribution
system.tol2bus.trans_dist::ReadCleanReq          1762                       # Transaction distribution
system.tol2bus.trans_dist::ReadSharedReq         8675                       # Transaction distribution
system.tol2bus.pkt_count_system.cpu.icache.mem_side::system.l2.cpu_side         4772                       # Packet count per connected master and slave (bytes)
system.tol2bus.pkt_count_system.cpu.dcache.mem_side::system.l2.cpu_side        30647                       # Packet count per connected master and slave (bytes)
system.tol2bus.pkt_count::total                 35419                       # Packet count per connected master and slave (bytes)
system.tol2bus.pkt_size_system.cpu.icache.mem_side::system.l2.cpu_side       192640                       # Cumulative packet size per connected master and slave (bytes)
system.tol2bus.pkt_size_system.cpu.dcache.mem_side::system.l2.cpu_side       817024                       # Cumulative packet size per connected master and slave (bytes)
system.tol2bus.pkt_size::total                1009664                       # Cumulative packet size per connected master and slave (bytes)
system.tol2bus.snoops                               0                       # Total snoops (count)
system.tol2bus.snoopTraffic                         0                       # Total snoop traffic (bytes)
system.tol2bus.snoop_fanout::samples            12319                       # Request fanout histogram
system.tol2bus.snoop_fanout::mean            0.000244                       # Request fanout histogram
system.tol2bus.snoop_fanout::stdev           0.015604                       # Request fanout histogram
system.tol2bus.snoop_fanout::underflows             0      0.00%      0.00% # Request fanout histogram
system.tol2bus.snoop_fanout::0                  12316     99.98%     99.98% # Request fanout histogram
system.tol2bus.snoop_fanout::1                      3      0.02%    100.00% # Request fanout histogram
system.tol2bus.snoop_fanout::2                      0      0.00%    100.00% # Request fanout histogram
system.tol2bus.snoop_fanout::3                      0      0.00%    100.00% # Request fanout histogram
system.tol2bus.snoop_fanout::4                      0      0.00%    100.00% # Request fanout histogram
system.tol2bus.snoop_fanout::overflows              0      0.00%    100.00% # Request fanout histogram
system.tol2bus.snoop_fanout::min_value              0                       # Request fanout histogram
system.tol2bus.snoop_fanout::max_value              1                       # Request fanout histogram
system.tol2bus.snoop_fanout::total              12319                       # Request fanout histogram
system.tol2bus.reqLayer0.occupancy           15008500                       # Layer occupancy (ticks)
system.tol2bus.reqLayer0.utilization              0.4                       # Layer utilization (%)
system.tol2bus.respLayer1.occupancy          15835500                       # Layer occupancy (ticks)
system.tol2bus.respLayer1.utilization             0.4                       # Layer utilization (%)
system.tol2bus.respLayer0.occupancy           2641500                       # Layer occupancy (ticks)
system.tol2bus.respLayer0.utilization             0.1                       # Layer utilization (%)
system.tol2bus.power_state.pwrStateResidencyTicks::UNDEFINED   4141664000                       # Cumulative time (in ticks) in various power states
system.voltage_domain.voltage                       1                       # Voltage in Volts
system.clk_domain.clock                          1000                       # Clock period in ticks
system.l2.demand_hits::.cpu.inst                  140                       # number of demand (read+write) hits
system.l2.demand_hits::.cpu.data                 3012                       # number of demand (read+write) hits
system.l2.demand_hits::total                     3152                       # number of demand (read+write) hits
system.l2.overall_hits::.cpu.inst                 140                       # number of overall hits
system.l2.overall_hits::.cpu.data                3012                       # number of overall hits
system.l2.overall_hits::total                    3152                       # number of overall hits
system.l2.demand_misses::.cpu.inst               1622                       # number of demand (read+write) misses
system.l2.demand_misses::.cpu.data               7545                       # number of demand (read+write) misses
system.l2.demand_misses::total                   9167                       # number of demand (read+write) misses
system.l2.overall_misses::.cpu.inst              1622                       # number of overall misses
system.l2.overall_misses::.cpu.data              7545                       # number of overall misses
system.l2.overall_misses::total                  9167                       # number of overall misses
system.l2.demand_miss_latency::.cpu.inst    123578500                       # number of demand (read+write) miss cycles
system.l2.demand_miss_latency::.cpu.data    605955500                       # number of demand (read+write) miss cycles
system.l2.demand_miss_latency::total        729534000                       # number of demand (read+write) miss cycles
system.l2.overall_miss_latency::.cpu.inst    123578500                       # number of overall miss cycles
system.l2.overall_miss_latency::.cpu.data    605955500                       # number of overall miss cycles
system.l2.overall_miss_latency::total       729534000                       # number of overall miss cycles
system.l2.demand_accesses::.cpu.inst             1762                       # number of demand (read+write) accesses
system.l2.demand_accesses::.cpu.data            10557                       # number of demand (read+write) accesses
system.l2.demand_accesses::total                12319                       # number of demand (read+write) accesses
system.l2.overall_accesses::.cpu.inst            1762                       # number of overall (read+write) accesses
system.l2.overall_accesses::.cpu.data           10557                       # number of overall (read+write) accesses
system.l2.overall_accesses::total               12319                       # number of overall (read+write) accesses
system.l2.demand_miss_rate::.cpu.inst        0.920545                       # miss rate for demand accesses
system.l2.demand_miss_rate::.cpu.data        0.714692                       # miss rate for demand accesses
system.l2.demand_miss_rate::total            0.744135                       # miss rate for demand accesses
system.l2.overall_miss_rate::.cpu.inst       0.920545                       # miss rate for overall accesses
system.l2.overall_miss_rate::.cpu.data       0.714692                       # miss rate for overall accesses
system.l2.overall_miss_rate::total           0.744135                       # miss rate for overall accesses
system.l2.demand_avg_miss_latency::.cpu.inst 76188.964242                       # average overall miss latency
system.l2.demand_avg_miss_latency::.cpu.data 80312.193506                       # average overall miss latency
system.l2.demand_avg_miss_latency::total 79582.633359                       # average overall miss latency
system.l2.overall_avg_miss_latency::.cpu.inst 76188.964242                       # average overall miss latency
system.l2.overall_avg_miss_latency::.cpu.data 80312.193506                       # average overall miss latency
system.l2.overall_avg_miss_latency::total 79582.633359                       # average overall miss latency
system.l2.blocked_cycles::no_mshrs                  0                       # number of cycles access was blocked
system.l2.blocked_cycles::no_targets                0                       # number of cycles access was blocked
system.l2.blocked::no_mshrs                         0                       # number of cycles access was blocked
system.l2.blocked::no_targets                       0                       # number of cycles access was blocked
system.l2.avg_blocked_cycles::no_mshrs            nan                       # average number of cycles each access was blocked
system.l2.avg_blocked_cycles::no_targets          nan                       # average number of cycles each access was blocked
system.l2.demand_mshr_misses::.cpu.inst          1622                       # number of demand (read+write) MSHR misses
system.l2.demand_mshr_misses::.cpu.data          7545                       # number of demand (read+write) MSHR misses
system.l2.demand_mshr_misses::total              9167                       # number of demand (read+write) MSHR misses
system.l2.overall_mshr_misses::.cpu.inst         1622                       # number of overall MSHR misses
system.l2.overall_mshr_misses::.cpu.data         7545                       # number of overall MSHR misses
system.l2.overall_mshr_misses::total             9167                       # number of overall MSHR misses
system.l2.demand_mshr_miss_latency::.cpu.inst    107358500                       # number of demand (read+write) MSHR miss cycles
system.l2.demand_mshr_miss_latency::.cpu.data    530505500                       # number of demand (read+write) MSHR miss cycles
system.l2.demand_mshr_miss_latency::total    637864000                       # number of demand (read+write) MSHR miss cycles
system.l2.overall_mshr_miss_latency::.cpu.inst    107358500                       # number of overall MSHR miss cycles
system.l2.overall_mshr_miss_latency::.cpu.data    530505500                       # number of overall MSHR miss cycles
system.l2.overall_mshr_miss_latency::total    637864000                       # number of overall MSHR miss cycles
system.l2.demand_mshr_miss_rate::.cpu.inst     0.920545                       # mshr miss rate for demand accesses
system.l2.demand_mshr_miss_rate::.cpu.data     0.714692                       # mshr miss rate for demand accesses
system.l2.demand_mshr_miss_rate::total       0.744135                       # mshr miss rate for demand accesses
system.l2.overall_mshr_miss_rate::.cpu.inst     0.920545                       # mshr miss rate for overall accesses
system.l2.overall_mshr_miss_rate::.cpu.data     0.714692                       # mshr miss rate for overall accesses
system.l2.overall_mshr_miss_rate::total      0.744135                       # mshr miss rate for overall accesses
system.l2.demand_avg_mshr_miss_latency::.cpu.inst 66188.964242                       # average overall mshr miss latency
system.l2.demand_avg_mshr_miss_latency::.cpu.data 70312.193506                       # average overall mshr miss latency
system.l2.demand_avg_mshr_miss_latency::total 69582.633359                       # average overall mshr miss latency
system.l2.overall_avg_mshr_miss_latency::.cpu.inst 66188.964242                       # average overall mshr miss latency
system.l2.overall_avg_mshr_miss_latency::.cpu.data 70312.193506                       # average overall mshr miss latency
system.l2.overall_avg_mshr_miss_latency::total 69582.633359                       # average overall mshr miss latency
system.l2.replacements                              0                       # number of replacements
system.l2.WritebackDirty_hits::.writebacks         2209                       # number of WritebackDirty hits
system.l2.WritebackDirty_hits::total             2209                       # number of WritebackDirty hits
system.l2.WritebackDirty_accesses::.writebacks         2209                       # number of WritebackDirty accesses(hits+misses)
system.l2.WritebackDirty_accesses::total         2209                       # number of WritebackDirty accesses(hits+misses)
system.l2.WritebackClean_hits::.writebacks         1248                       # number of WritebackClean hits
system.l2.WritebackClean_hits::total             1248                       # number of WritebackClean hits
system.l2.WritebackClean_accesses::.writebacks         1248                       # number of WritebackClean accesses(hits+misses)
system.l2.WritebackClean_accesses::total         1248                       # number of WritebackClean accesses(hits+misses)
system.l2.ReadExReq_hits::.cpu.data               368                       # number of ReadExReq hits
system.l2.ReadExReq_hits::total                   368                       # number of ReadExReq hits
system.l2.ReadExReq_misses::.cpu.data            1514                       # number of ReadExReq misses
system.l2.ReadExReq_misses::total                1514                       # number of ReadExReq misses
system.l2.ReadExReq_miss_latency::.cpu.data    119422000                       # number of ReadExReq miss cycles
system.l2.ReadExReq_miss_latency::total     119422000                       # number of ReadExReq miss cycles
system.l2.ReadExReq_accesses::.cpu.data          1882                       # number of ReadExReq accesses(hits+misses)
system.l2.ReadExReq_accesses::total              1882                       # number of ReadExReq accesses(hits+misses)
system.l2.ReadExReq_miss_rate::.cpu.data     0.804463                       # miss rate for ReadExReq accesses
system.l2.ReadExReq_miss_rate::total         0.804463                       # miss rate for ReadExReq accesses
system.l2.ReadExReq_avg_miss_latency::.cpu.data 78878.467635                       # average ReadExReq miss latency
system.l2.ReadExReq_avg_miss_latency::total 78878.467635                       # average ReadExReq miss latency
system.l2.ReadExReq_mshr_misses::.cpu.data         1514                       # number of ReadExReq MSHR misses
system.l2.ReadExReq_mshr_misses::total           1514                       # number of ReadExReq MSHR misses
system.l2.ReadExReq_mshr_miss_latency::.cpu.data    104282000                       # number of ReadExReq MSHR miss cycles
system.l2.ReadExReq_mshr_miss_latency::total    104282000                       # number of ReadExReq MSHR miss cycles
system.l2.ReadExReq_mshr_miss_rate::.cpu.data     0.804463                       # mshr miss rate for ReadExReq accesses
system.l2.ReadExReq_mshr_miss_rate::total     0.804463                       # mshr miss rate for ReadExReq accesses
system.l2.ReadExReq_avg_mshr_miss_latency::.cpu.data 68878.467635                       # average ReadExReq mshr miss latency
system.l2.ReadExReq_avg_mshr_miss_latency::total 68878.467635                       # average ReadExReq mshr miss latency
system.l2.ReadCleanReq_hits::.cpu.inst            140                       # number of ReadCleanReq hits
system.l2.ReadCleanReq_hits::total                140                       # number of ReadCleanReq hits
system.l2.ReadCleanReq_misses::.cpu.inst         1622                       # number of ReadCleanReq misses
system.l2.ReadCleanReq_misses::total             1622                       # number of ReadCleanReq misses
system.l2.ReadCleanReq_miss_latency::.cpu.inst    123578500                       # number of ReadCleanReq miss cycles
system.l2.ReadCleanReq_miss_latency::total    123578500                       # number of ReadCleanReq miss cycles
system.l2.ReadCleanReq_accesses::.cpu.inst         1762                       # number of ReadCleanReq accesses(hits+misses)
system.l2.ReadCleanReq_accesses::total           1762                       # number of ReadCleanReq accesses(hits+misses)
system.l2.ReadCleanReq_miss_rate::.cpu.inst     0.920545                       # miss rate for ReadCleanReq accesses
system.l2.ReadCleanReq_miss_rate::total      0.920545                       # miss rate for ReadCleanReq accesses
system.l2.ReadCleanReq_avg_miss_latency::.cpu.inst 76188.964242                       # average ReadCleanReq miss latency
system.l2.ReadCleanReq_avg_miss_latency::total 76188.964242                       # average ReadCleanReq miss latency
system.l2.ReadCleanReq_mshr_misses::.cpu.inst         1622                       # number of ReadCleanReq MSHR misses
system.l2.ReadCleanReq_mshr_misses::total         1622                       # number of ReadCleanReq MSHR misses
system.l2.ReadCleanReq_mshr_miss_latency::.cpu.inst    107358500                       # number of ReadCleanReq MSHR miss cycles
system.l2.ReadCleanReq_mshr_miss_latency::total    107358500                       # number of ReadCleanReq MSHR miss cycles
system.l2.ReadCleanReq_mshr_miss_rate::.cpu.inst     0.920545                       # mshr miss rate for ReadCleanReq accesses
system.l2.ReadCleanReq_mshr_miss_rate::total     0.920545                       # mshr miss rate for ReadCleanReq accesses
system.l2.ReadCleanReq_avg_mshr_miss_latency::.cpu.inst 66188.964242                       # average ReadCleanReq mshr miss latency
system.l2.ReadCleanReq_avg_mshr_miss_latency::total 66188.964242                       # average ReadCleanReq mshr miss latency
system.l2.ReadSharedReq_hits::.cpu.data          2644                       # number of ReadSharedReq hits
system.l2.ReadSharedReq_hits::total              2644                       # number of ReadSharedReq hits
system.l2.ReadSharedReq_misses::.cpu.data         6031                       # number of ReadSharedReq misses
system.l2.ReadSharedReq_misses::total            6031                       # number of ReadSharedReq misses
system.l2.ReadSharedReq_miss_latency::.cpu.data    486533500                       # number of ReadSharedReq miss cycles
system.l2.ReadSharedReq_miss_latency::total    486533500                       # number of ReadSharedReq miss cycles
system.l2.ReadSharedReq_accesses::.cpu.data         8675                       # number of ReadSharedReq accesses(hits+misses)
system.l2.ReadSharedReq_accesses::total          8675                       # number of ReadSharedReq accesses(hits+misses)
system.l2.ReadSharedReq_miss_rate::.cpu.data     0.695216                       # miss rate for ReadSharedReq accesses
system.l2.ReadSharedReq_miss_rate::total     0.695216                       # miss rate for ReadSharedReq accesses
system.l2.ReadSharedReq_avg_miss_latency::.cpu.data 80672.110761                       # average ReadSharedReq miss latency
system.l2.ReadSharedReq_avg_miss_latency::total 80672.110761                       # average ReadSharedReq miss latency
system.l2.ReadSharedReq_mshr_misses::.cpu.data         6031                       # number of ReadSharedReq MSHR misses
system.l2.ReadSharedReq_mshr_misses::total         6031                       # number of ReadSharedReq MSHR misses
system.l2.ReadSharedReq_mshr_miss_latency::.cpu.data    426223500                       # number of ReadSharedReq MSHR miss cycles
system.l2.ReadSharedReq_mshr_miss_latency::total    426223500                       # number of ReadSharedReq MSHR miss cycles
system.l2.ReadSharedReq_mshr_miss_rate::.cpu.data     0.695216                       # mshr miss rate for ReadSharedReq accesses
system.l2.ReadSharedReq_mshr_miss_rate::total     0.695216                       # mshr miss rate for ReadSharedReq accesses
system.l2.ReadSharedReq_avg_mshr_miss_latency::.cpu.data 70672.110761                       # average ReadSharedReq mshr miss latency
system.l2.ReadSharedReq_avg_mshr_miss_latency::total 70672.110761                       # average ReadSharedReq mshr miss latency
system.l2.power_state.pwrStateResidencyTicks::UNDEFINED   4141664000                       # Cumulative time (in ticks) in various power states
system.l2.tags.tagsinuse                  5406.892530                       # Cycle average of tags in use
system.l2.tags.total_refs                           0                       # Total number of references to valid blocks.
system.l2.tags.sampled_refs                         0                       # Sample count of references to valid blocks.
system.l2.tags.avg_refs                           nan                       # Average number of references to valid blocks.
system.l2.tags.warmup_cycle                     77000                       # Cycle when the warmup percentage was hit.
system.l2.tags.occ_blocks::.cpu.inst       861.523370                       # Average occupied blocks per requestor
system.l2.tags.occ_blocks::.cpu.data      4545.369161                       # Average occupied blocks per requestor
system.l2.tags.occ_percent::.cpu.inst        0.026292                       # Average percentage of cache occupancy
system.l2.tags.occ_percent::.cpu.data        0.138714                       # Average percentage of cache occupancy
system.l2.tags.occ_percent::total            0.165005                       # Average percentage of cache occupancy
system.l2.tags.occ_task_id_blocks::1024          9167                       # Occupied blocks per task id
system.l2.tags.age_task_id_blocks_1024::0            2                       # Occupied blocks per task id
system.l2.tags.age_task_id_blocks_1024::1           25                       # Occupied blocks per task id
system.l2.tags.age_task_id_blocks_1024::2         1899                       # Occupied blocks per task id
system.l2.tags.age_task_id_blocks_1024::3         7241                       # Occupied blocks per task id
system.l2.tags.occ_task_id_percent::1024     0.279755                       # Percentage of cache occupancy per task id
system.l2.tags.tag_accesses                    193951                       # Number of tag accesses
system.l2.tags.data_accesses                   193951                       # Number of data accesses
system.l2.tags.power_state.pwrStateResidencyTicks::UNDEFINED   4141664000                       # Cumulative time (in ticks) in various power states
system.cpu_voltage_domain.voltage                   1                       # Voltage in Volts
system.mem_ctrls.bytes_read::.cpu.inst         103808                       # Number of bytes read from this memory
system.mem_ctrls.bytes_read::.cpu.data         482880                       # Number of bytes read from this memory
system.mem_ctrls.bytes_read::total             586688                       # Number of bytes read from this memory
system.mem_ctrls.bytes_inst_read::.cpu.inst       103808                       # Number of instructions bytes read from this memory
system.mem_ctrls.bytes_inst_read::total        103808                       # Number of instructions bytes read from this memory
system.mem_ctrls.num_reads::.cpu.inst            1622                       # Number of read requests responded to by this memory
system.mem_ctrls.num_reads::.cpu.data            7545                       # Number of read requests responded to by this memory
system.mem_ctrls.num_reads::total                9167                       # Number of read requests responded to by this memory
system.mem_ctrls.bw_read::.cpu.inst          25064322                       # Total read bandwidth from this memory (bytes/s)
system.mem_ctrls.bw_read::.cpu.data         116590820                       # Total read bandwidth from this memory (bytes/s)
system.mem_ctrls.bw_read::total             141655142                       # Total read bandwidth from this memory (bytes/s)
system.mem_ctrls.bw_inst_read::.cpu.inst     25064322                       # Instruction read bandwidth from this memory (bytes/s)
system.mem_ctrls.bw_inst_read::total         25064322                       # Instruction read bandwidth from this memory (bytes/s)
system.mem_ctrls.bw_total::.cpu.inst         25064322                       # Total bandwidth to/from this memory (bytes/s)
system.mem_ctrls.bw_total::.cpu.data        116590820                       # Total bandwidth to/from this memory (bytes/s)
system.mem_ctrls.bw_total::total            141655142                       # Total bandwidth to/from this memory (bytes/s)
system.mem_ctrls.avgPriority_.cpu.inst::samples      1622.00                       # Average QoS priority value for accepted requests
system.mem_ctrls.avgPriority_.cpu.data::samples      7545.00                       # Average QoS priority value for accepted requests
system.mem_ctrls.priorityMinLatency      0.000000018750                       # per QoS priority minimum request to response latency (s)
system.mem_ctrls.priorityMaxLatency      0.000000577500                       # per QoS priority maximum request to response latency (s)
system.mem_ctrls.numReadWriteTurnArounds            0                       # Number of turnarounds from READ to WRITE
system.mem_ctrls.numWriteReadTurnArounds            0                       # Number of turnarounds from WRITE to READ
system.mem_ctrls.numStayReadState               19391                       # Number of times bus staying in READ state
system.mem_ctrls.numStayWriteState                  0                       # Number of times bus staying in WRITE state
system.mem_ctrls.readReqs                        9167                       # Number of read requests accepted
system.mem_ctrls.writeReqs                          0                       # Number of write requests accepted
system.mem_ctrls.readBursts                      9167                       # Number of DRAM read bursts, including those serviced by the write queue
system.mem_ctrls.writeBursts                        0                       # Number of DRAM write bursts, including those merged in the write queue
system.mem_ctrls.servicedByWrQ                      0                       # Number of DRAM read bursts serviced by the write queue
system.mem_ctrls.mergedWrBursts                     0                       # Number of DRAM write bursts merged with an existing one
system.mem_ctrls.neitherReadNorWriteReqs            0                       # Number of requests that are neither read nor write
system.mem_ctrls.perBankRdBursts::0               658                       # Per bank write bursts
system.mem_ctrls.perBankRdBursts::1               492                       # Per bank write bursts
system.mem_ctrls.perBankRdBursts::2               559                       # Per bank write bursts
system.mem_ctrls.perBankRdBursts::3               674                       # Per bank write bursts
system.mem_ctrls.perBankRdBursts::4               667                       # Per bank write bursts
system.mem_ctrls.perBankRdBursts::5               568                       # Per bank write bursts
system.mem_ctrls.perBankRdBursts::6               449                       # Per bank write bursts
system.mem_ctrls.perBankRdBursts::7               385                       # Per bank write bursts
system.mem_ctrls.perBankRdBursts::8               482                       # Per bank write bursts
system.mem_ctrls.perBankRdBursts::9               470                       # Per bank write bursts
system.mem_ctrls.perBankRdBursts::10              436                       # Per bank write bursts
system.mem_ctrls.perBankRdBursts::11              624                       # Per bank write bursts
system.mem_ctrls.perBankRdBursts::12              563                       # Per bank write bursts
system.mem_ctrls.perBankRdBursts::13              652                       # Per bank write bursts
system.mem_ctrls.perBankRdBursts::14              763                       # Per bank write bursts
system.mem_ctrls.perBankRdBursts::15              725                       # Per bank write bursts
system.mem_ctrls.perBankWrBursts::0                 0                       # Per bank write bursts
system.mem_ctrls.perBankWrBursts::1                 0                       # Per bank write bursts
system.mem_ctrls.perBankWrBursts::2                 0                       # Per bank write bursts
system.mem_ctrls.perBankWrBursts::3                 0                       # Per bank write bursts
system.mem_ctrls.perBankWrBursts::4                 0                       # Per bank write bursts
system.mem_ctrls.perBankWrBursts::5                 0                       # Per bank write bursts
system.mem_ctrls.perBankWrBursts::6                 0                       # Per bank write bursts
system.mem_ctrls.perBankWrBursts::7                 0                       # Per bank write bursts
system.mem_ctrls.perBankWrBursts::8                 0                       # Per bank write bursts
system.mem_ctrls.perBankWrBursts::9                 0                       # Per bank write bursts
system.mem_ctrls.perBankWrBursts::10                0                       # Per bank write bursts
system.mem_ctrls.perBankWrBursts::11                0                       # Per bank write bursts
system.mem_ctrls.perBankWrBursts::12                0                       # Per bank write bursts
system.mem_ctrls.perBankWrBursts::13                0                       # Per bank write bursts
system.mem_ctrls.perBankWrBursts::14                0                       # Per bank write bursts
system.mem_ctrls.perBankWrBursts::15                0                       # Per bank write bursts
system.mem_ctrls.avgRdQLen                       1.01                       # Average read queue length when enqueuing
system.mem_ctrls.avgWrQLen                       0.00                       # Average write queue length when enqueuing
system.mem_ctrls.totQLat                     89308000                       # Total ticks spent queuing
system.mem_ctrls.totBusLat                   45835000                       # Total ticks spent in databus transfers
system.mem_ctrls.totMemAccLat               261189250                       # Total ticks spent from burst creation until serviced by the DRAM
system.mem_ctrls.avgQLat                      9742.34                       # Average queueing delay per DRAM burst
system.mem_ctrls.avgBusLat                    5000.00                       # Average bus latency per DRAM burst
system.mem_ctrls.avgMemAccLat                28492.34                       # Average memory access latency per DRAM burst
system.mem_ctrls.numRdRetry                         0                       # Number of times read queue was full causing retry
system.mem_ctrls.numWrRetry                         0                       # Number of times write queue was full causing retry
system.mem_ctrls.readRowHits                     5782                       # Number of row buffer hits during reads
system.mem_ctrls.writeRowHits                       0                       # Number of row buffer hits during writes
system.mem_ctrls.readRowHitRate                 63.07                       # Row buffer hit rate for reads
system.mem_ctrls.writeRowHitRate                  nan                       # Row buffer hit rate for writes
system.mem_ctrls.readPktSize::0                     0                       # Read request sizes (log2)
system.mem_ctrls.readPktSize::1                     0                       # Read request sizes (log2)
system.mem_ctrls.readPktSize::2                     0                       # Read request sizes (log2)
system.mem_ctrls.readPktSize::3                     0                       # Read request sizes (log2)
system.mem_ctrls.readPktSize::4                     0                       # Read request sizes (log2)
system.mem_ctrls.readPktSize::5                     0                       # Read request sizes (log2)
system.mem_ctrls.readPktSize::6                  9167                       # Read request sizes (log2)
system.mem_ctrls.writePktSize::0                    0                       # Write request sizes (log2)
system.mem_ctrls.writePktSize::1                    0                       # Write request sizes (log2)
system.mem_ctrls.writePktSize::2                    0                       # Write request sizes (log2)
system.mem_ctrls.writePktSize::3                    0                       # Write request sizes (log2)
system.mem_ctrls.writePktSize::4                    0                       # Write request sizes (log2)
system.mem_ctrls.writePktSize::5                    0                       # Write request sizes (log2)
system.mem_ctrls.writePktSize::6                    0                       # Write request sizes (log2)
system.mem_ctrls.rdQLenPdf::0                    8982                       # What read queue length does an incoming req see
system.mem_ctrls.rdQLenPdf::1                     185                       # What read queue length does an incoming req see
system.mem_ctrls.rdQLenPdf::2                       0                       # What read queue length does an incoming req see
system.mem_ctrls.rdQLenPdf::3                       0                       # What read queue length does an incoming req see
system.mem_ctrls.rdQLenPdf::4                       0                       # What read queue length does an incoming req see
system.mem_ctrls.rdQLenPdf::5                       0                       # What read queue length does an incoming req see
system.mem_ctrls.rdQLenPdf::6                       0                       # What read queue length does an incoming req see
system.mem_ctrls.rdQLenPdf::7                       0                       # What read queue length does an incoming req see
system.mem_ctrls.rdQLenPdf::8                       0                       # What read queue length does an incoming req see
system.mem_ctrls.rdQLenPdf::9                       0                       # What read queue length does an incoming req see
system.mem_ctrls.rdQLenPdf::10                      0                       # What read queue length does an incoming req see
system.mem_ctrls.rdQLenPdf::11                      0                       # What read queue length does an incoming req see
system.mem_ctrls.rdQLenPdf::12                      0                       # What read queue length does an incoming req see
system.mem_ctrls.rdQLenPdf::13                      0                       # What read queue length does an incoming req see
system.mem_ctrls.rdQLenPdf::14                      0                       # What read queue length does an incoming req see
system.mem_ctrls.rdQLenPdf::15                      0                       # What read queue length does an incoming req see
system.mem_ctrls.rdQLenPdf::16                      0                       # What read queue length does an incoming req see
system.mem_ctrls.rdQLenPdf::17                      0                       # What read queue length does an incoming req see
system.mem_ctrls.rdQLenPdf::18                      0                       # What read queue length does an incoming req see
system.mem_ctrls.rdQLenPdf::19                      0                       # What read queue length does an incoming req see
system.mem_ctrls.rdQLenPdf::20                      0                       # What read queue length does an incoming req see
system.mem_ctrls.rdQLenPdf::21                      0                       # What read queue length does an incoming req see
system.mem_ctrls.rdQLenPdf::22                      0                       # What read queue length does an incoming req see
system.mem_ctrls.rdQLenPdf::23                      0                       # What read queue length does an incoming req see
system.mem_ctrls.rdQLenPdf::24                      0                       # What read queue length does an incoming req see
system.mem_ctrls.rdQLenPdf::25                      0                       # What read queue length does an incoming req see
system.mem_ctrls.rdQLenPdf::26                      0                       # What read queue length does an incoming req see
system.mem_ctrls.rdQLenPdf::27                      0                       # What read queue length does an incoming req see
system.mem_ctrls.rdQLenPdf::28                      0                       # What read queue length does an incoming req see
system.mem_ctrls.rdQLenPdf::29                      0                       # What read queue length does an incoming req see
system.mem_ctrls.rdQLenPdf::30                      0                       # What read queue length does an incoming req see
system.mem_ctrls.rdQLenPdf::31                      0                       # What read queue length does an incoming req see
system.mem_ctrls.wrQLenPdf::0                       0                       # What write queue length does an incoming req see
system.mem_ctrls.wrQLenPdf::1                       0                       # What write queue length does an incoming req see
system.mem_ctrls.wrQLenPdf::2                       0                       # What write queue length does an incoming req see
system.mem_ctrls.wrQLenPdf::3                       0                       # What write queue length does an incoming req see
system.mem_ctrls.wrQLenPdf::4                       0                       # What write queue length does an incoming req see
system.mem_ctrls.wrQLenPdf::5                       0                       # What write queue length does an incoming req see
system.mem_ctrls.wrQLenPdf::6                       0                       # What write queue length does an incoming req see
system.mem_ctrls.wrQLenPdf::7                       0                       # What write queue length does an incoming req see
system.mem_ctrls.wrQLenPdf::8                       0                       # What write queue length does an incoming req see
system.mem_ctrls.wrQLenPdf::9                       0                       # What write queue length does an incoming req see
system.mem_ctrls.wrQLenPdf::10                      0                       # What write queue length does an incoming req see
system.mem_ctrls.wrQLenPdf::11                      0                       # What write queue length does an incoming req see
system.mem_ctrls.wrQLenPdf::12                      0                       # What write queue length does an incoming req see
system.mem_ctrls.wrQLenPdf::13                      0                       # What write queue length does an incoming req see
system.mem_ctrls.wrQLenPdf::14                      0                       # What write queue length does an incoming req see
system.mem_ctrls.wrQLenPdf::15                      0                       # What write queue length does an incoming req see
system.mem_ctrls.wrQLenPdf::16                      0                       # What write queue length does an incoming req see
system.mem_ctrls.wrQLenPdf::17                      0                       # What write queue length does an incoming req see
system.mem_ctrls.wrQLenPdf::18                      0                       # What write queue length does an incoming req see
system.mem_ctrls.wrQLenPdf::19                      0                       # What write queue length does an incoming req see
system.mem_ctrls.wrQLenPdf::20                      0                       # What write queue length does an incoming req see
system.mem_ctrls.wrQLenPdf::21                      0                       # What write queue length does an incoming req see
system.mem_ctrls.wrQLenPdf::22                      0                       # What write queue length does an incoming req see
system.mem_ctrls.wrQLenPdf::23                      0                       # What write queue length does an incoming req see
system.mem_ctrls.wrQLenPdf::24                      0                       # What write queue length does an incoming req see
system.mem_ctrls.wrQLenPdf::25                      0                       # What write queue length does an incoming req see
system.mem_ctrls.wrQLenPdf::26                      0                       # What write queue length does an incoming req see
system.mem_ctrls.wrQLenPdf::27                      0                       # What write queue length does an incoming req see
system.mem_ctrls.wrQLenPdf::28                      0                       # What write queue length does an incoming req see
system.mem_ctrls.wrQLenPdf::29                      0                       # What write queue length does an incoming req see
system.mem_ctrls.wrQLenPdf::30                      0                       # What write queue length does an incoming req see
system.mem_ctrls.wrQLenPdf::31                      0                       # What write queue length does an incoming req see
system.mem_ctrls.wrQLenPdf::32                      0                       # What write queue length does an incoming req see
system.mem_ctrls.wrQLenPdf::33                      0                       # What write queue length does an incoming req see
system.mem_ctrls.wrQLenPdf::34                      0                       # What write queue length does an incoming req see
system.mem_ctrls.wrQLenPdf::35                      0                       # What write queue length does an incoming req see
system.mem_ctrls.wrQLenPdf::36                      0                       # What write queue length does an incoming req see
system.mem_ctrls.wrQLenPdf::37                      0                       # What write queue length does an incoming req see
system.mem_ctrls.wrQLenPdf::38                      0                       # What write queue length does an incoming req see
system.mem_ctrls.wrQLenPdf::39                      0                       # What write queue length does an incoming req see
system.mem_ctrls.wrQLenPdf::40                      0                       # What write queue length does an incoming req see
system.mem_ctrls.wrQLenPdf::41                      0                       # What write queue length does an incoming req see
system.mem_ctrls.wrQLenPdf::42                      0                       # What write queue length does an incoming req see
system.mem_ctrls.wrQLenPdf::43                      0                       # What write queue length does an incoming req see
system.mem_ctrls.wrQLenPdf::44                      0                       # What write queue length does an incoming req see
system.mem_ctrls.wrQLenPdf::45                      0                       # What write queue length does an incoming req see
system.mem_ctrls.wrQLenPdf::46                      0                       # What write queue length does an incoming req see
system.mem_ctrls.wrQLenPdf::47                      0                       # What write queue length does an incoming req see
system.mem_ctrls.wrQLenPdf::48                      0                       # What write queue length does an incoming req see
system.mem_ctrls.wrQLenPdf::49                      0                       # What write queue length does an incoming req see
system.mem_ctrls.wrQLenPdf::50                      0                       # What write queue length does an incoming req see
system.mem_ctrls.wrQLenPdf::51                      0                       # What write queue length does an incoming req see
system.mem_ctrls.wrQLenPdf::52                      0                       # What write queue length does an incoming req see
system.mem_ctrls.wrQLenPdf::53                      0                       # What write queue length does an incoming req see
system.mem_ctrls.wrQLenPdf::54                      0                       # What write queue length does an incoming req see
system.mem_ctrls.wrQLenPdf::55                      0                       # What write queue length does an incoming req see
system.mem_ctrls.wrQLenPdf::56                      0                       # What write queue length does an incoming req see
system.mem_ctrls.wrQLenPdf::57                      0                       # What write queue length does an incoming req see
system.mem_ctrls.wrQLenPdf::58                      0                       # What write queue length does an incoming req see
system.mem_ctrls.wrQLenPdf::59                      0                       # What write queue length does an incoming req see
system.mem_ctrls.wrQLenPdf::60                      0                       # What write queue length does an incoming req see
system.mem_ctrls.wrQLenPdf::61                      0                       # What write queue length does an incoming req see
system.mem_ctrls.wrQLenPdf::62                      0                       # What write queue length does an incoming req see
system.mem_ctrls.wrQLenPdf::63                      0                       # What write queue length does an incoming req see
system.mem_ctrls.bytesPerActivate::samples         3384                       # Bytes accessed per row activation
system.mem_ctrls.bytesPerActivate::mean    173.352246                       # Bytes accessed per row activation
system.mem_ctrls.bytesPerActivate::gmean   115.188326                       # Bytes accessed per row activation
system.mem_ctrls.bytesPerActivate::stdev   216.515705                       # Bytes accessed per row activation
system.mem_ctrls.bytesPerActivate::0-127         1808     53.43%     53.43% # Bytes accessed per row activation
system.mem_ctrls.bytesPerActivate::128-255          984     29.08%     82.51% # Bytes accessed per row activation
system.mem_ctrls.bytesPerActivate::256-383          220      6.50%     89.01% # Bytes accessed per row activation
system.mem_ctrls.bytesPerActivate::384-511          101      2.98%     91.99% # Bytes accessed per row activation
system.mem_ctrls.bytesPerActivate::512-639           60      1.77%     93.76% # Bytes accessed per row activation
system.mem_ctrls.bytesPerActivate::640-767           48      1.42%     95.18% # Bytes accessed per row activation
system.mem_ctrls.bytesPerActivate::768-895           21      0.62%     95.80% # Bytes accessed per row activation
system.mem_ctrls.bytesPerActivate::896-1023           31      0.92%     96.72% # Bytes accessed per row activation
system.mem_ctrls.bytesPerActivate::1024-1151          111      3.28%    100.00% # Bytes accessed per row activation
system.mem_ctrls.bytesPerActivate::total         3384                       # Bytes accessed per row activation
system.mem_ctrls.bytesReadDRAM                 586688                       # Total number of bytes read from DRAM
system.mem_ctrls.bytesReadWrQ                       0                       # Total number of bytes read from write queue
system.mem_ctrls.bytesWritten                       0                       # Total number of bytes written to DRAM
system.mem_ctrls.bytesReadSys                  586688                       # Total read bytes from the system interface side
system.mem_ctrls.bytesWrittenSys                    0                       # Total written bytes from the system interface side
system.mem_ctrls.avgRdBW                       141.66                       # Average DRAM read bandwidth in MiByte/s
system.mem_ctrls.avgWrBW                         0.00                       # Average achieved write bandwidth in MiByte/s
system.mem_ctrls.avgRdBWSys                    141.66                       # Average system read bandwidth in MiByte/s
system.mem_ctrls.avgWrBWSys                      0.00                       # Average system write bandwidth in MiByte/s
system.mem_ctrls.peakBW                      12800.00                       # Theoretical peak bandwidth in MiByte/s
system.mem_ctrls.busUtil                         1.11                       # Data bus utilization in percentage
system.mem_ctrls.busUtilRead                     1.11                       # Data bus utilization in percentage for reads
system.mem_ctrls.busUtilWrite                    0.00                       # Data bus utilization in percentage for writes
system.mem_ctrls.totGap                    4137325500                       # Total gap between requests
system.mem_ctrls.avgGap                     451328.19                       # Average gap between requests
system.mem_ctrls.masterReadBytes::.cpu.inst       103808                       # Per-master bytes read from memory
system.mem_ctrls.masterReadBytes::.cpu.data       482880                       # Per-master bytes read from memory
system.mem_ctrls.masterReadRate::.cpu.inst 25064321.973004087806                       # Per-master bytes read from memory rate (Bytes/sec)
system.mem_ctrls.masterReadRate::.cpu.data 116590819.535336524248                       # Per-master bytes read from memory rate (Bytes/sec)
system.mem_ctrls.masterReadAccesses::.cpu.inst         1622                       # Per-master read serviced memory accesses
system.mem_ctrls.masterReadAccesses::.cpu.data         7545                       # Per-master read serviced memory accesses
system.mem_ctrls.masterReadTotalLat::.cpu.inst     40959500                       # Per-master read total memory access latency
system.mem_ctrls.masterReadTotalLat::.cpu.data    220229750                       # Per-master read total memory access latency
system.mem_ctrls.masterReadAvgLat::.cpu.inst     25252.47                       # Per-master read average memory access latency
system.mem_ctrls.masterReadAvgLat::.cpu.data     29188.83                       # Per-master read average memory access latency
system.mem_ctrls.pageHitRate                    63.07                       # Row buffer hit rate, read and write combined
system.mem_ctrls.rank1.actEnergy             13109040                       # Energy for activate commands per rank (pJ)
system.mem_ctrls.rank1.preEnergy              6963825                       # Energy for precharge commands per rank (pJ)
system.mem_ctrls.rank1.readEnergy            33665100                       # Energy for read commands per rank (pJ)
system.mem_ctrls.rank1.writeEnergy                  0                       # Energy for write commands per rank (pJ)
system.mem_ctrls.rank1.refreshEnergy     326373840.000000                       # Energy for refresh commands per rank (pJ)
system.mem_ctrls.rank1.actBackEnergy       1540245450                       # Energy for active background per rank (pJ)
system.mem_ctrls.rank1.preBackEnergy        293350560                       # Energy for precharge background per rank (pJ)
system.mem_ctrls.rank1.actPowerDownEnergy            0                       # Energy for active power-down per rank (pJ)
system.mem_ctrls.rank1.prePowerDownEnergy            0                       # Energy for precharge power-down per rank (pJ)
system.mem_ctrls.rank1.selfRefreshEnergy            0                       # Energy for self refresh per rank (pJ)
system.mem_ctrls.rank1.totalEnergy         2213707815                       # Total energy per rank (pJ)
system.mem_ctrls.rank1.averagePower        534.497201                       # Core power per rank (mW)
system.mem_ctrls.rank1.totalIdleTime                0                       # Total Idle time Per DRAM Rank
system.mem_ctrls.rank1.memoryStateTime::IDLE    748328000                       # Time in different power states
system.mem_ctrls.rank1.memoryStateTime::REF    138060000                       # Time in different power states
system.mem_ctrls.rank1.memoryStateTime::SREF            0                       # Time in different power states
system.mem_ctrls.rank1.memoryStateTime::PRE_PDN            0                       # Time in different power states
system.mem_ctrls.rank1.memoryStateTime::ACT   3255276000                       # Time in different power states
system.mem_ctrls.rank1.memoryStateTime::ACT_PDN            0                       # Time in different power states
system.mem_ctrls.rank0.actEnergy             11059860                       # Energy for activate commands per rank (pJ)
system.mem_ctrls.rank0.preEnergy              5878455                       # Energy for precharge commands per rank (pJ)
system.mem_ctrls.rank0.readEnergy            31787280                       # Energy for read commands per rank (pJ)
system.mem_ctrls.rank0.writeEnergy                  0                       # Energy for write commands per rank (pJ)
system.mem_ctrls.rank0.refreshEnergy     326373840.000000                       # Energy for refresh commands per rank (pJ)
system.mem_ctrls.rank0.actBackEnergy       1385415210                       # Energy for active background per rank (pJ)
system.mem_ctrls.rank0.preBackEnergy        423733920                       # Energy for precharge background per rank (pJ)
system.mem_ctrls.rank0.actPowerDownEnergy            0                       # Energy for active power-down per rank (pJ)
system.mem_ctrls.rank0.prePowerDownEnergy            0                       # Energy for precharge power-down per rank (pJ)
system.mem_ctrls.rank0.selfRefreshEnergy            0                       # Energy for self refresh per rank (pJ)
system.mem_ctrls.rank0.totalEnergy         2184248565                       # Total energy per rank (pJ)
system.mem_ctrls.rank0.averagePower        527.384299                       # Core power per rank (mW)
system.mem_ctrls.rank0.totalIdleTime                0                       # Total Idle time Per DRAM Rank
system.mem_ctrls.rank0.memoryStateTime::IDLE   1088620250                       # Time in different power states
system.mem_ctrls.rank0.memoryStateTime::REF    138060000                       # Time in different power states
system.mem_ctrls.rank0.memoryStateTime::SREF            0                       # Time in different power states
system.mem_ctrls.rank0.memoryStateTime::PRE_PDN            0                       # Time in different power states
system.mem_ctrls.rank0.memoryStateTime::ACT   2914983750                       # Time in different power states
system.mem_ctrls.rank0.memoryStateTime::ACT_PDN            0                       # Time in different power states
system.mem_ctrls.power_state.pwrStateResidencyTicks::UNDEFINED   4141664000                       # Cumulative time (in ticks) in various power states
system.cpu_clk_domain.clock                       500                       # Clock period in ticks
system.cpu.icache.demand_hits::.cpu.inst       530316                       # number of demand (read+write) hits
system.cpu.icache.demand_hits::total           530316                       # number of demand (read+write) hits
system.cpu.icache.overall_hits::.cpu.inst       530316                       # number of overall hits
system.cpu.icache.overall_hits::total          530316                       # number of overall hits
system.cpu.icache.demand_misses::.cpu.inst         1762                       # number of demand (read+write) misses
system.cpu.icache.demand_misses::total           1762                       # number of demand (read+write) misses
system.cpu.icache.overall_misses::.cpu.inst         1762                       # number of overall misses
system.cpu.icache.overall_misses::total          1762                       # number of overall misses
system.cpu.icache.demand_miss_latency::.cpu.inst    129442000                       # number of demand (read+write) miss cycles
system.cpu.icache.demand_miss_latency::total    129442000                       # number of demand (read+write) miss cycles
system.cpu.icache.overall_miss_latency::.cpu.inst    129442000                       # number of overall miss cycles
system.cpu.icache.overall_miss_latency::total    129442000                       # number of overall miss cycles
system.cpu.icache.demand_accesses::.cpu.inst       532078                       # number of demand (read+write) accesses
system.cpu.icache.demand_accesses::total       532078                       # number of demand (read+write) accesses
system.cpu.icache.overall_accesses::.cpu.inst       532078                       # number of overall (read+write) accesses
system.cpu.icache.overall_accesses::total       532078                       # number of overall (read+write) accesses
system.cpu.icache.demand_miss_rate::.cpu.inst     0.003312                       # miss rate for demand accesses
system.cpu.icache.demand_miss_rate::total     0.003312                       # miss rate for demand accesses
system.cpu.icache.overall_miss_rate::.cpu.inst     0.003312                       # miss rate for overall accesses
system.cpu.icache.overall_miss_rate::total     0.003312                       # miss rate for overall accesses
system.cpu.icache.demand_avg_miss_latency::.cpu.inst 73463.110102                       # average overall miss latency
system.cpu.icache.demand_avg_miss_latency::total 73463.110102                       # average overall miss latency
system.cpu.icache.overall_avg_miss_latency::.cpu.inst 73463.110102                       # average overall miss latency
system.cpu.icache.overall_avg_miss_latency::total 73463.110102                       # average overall miss latency
system.cpu.icache.blocked_cycles::no_mshrs            0                       # number of cycles access was blocked
system.cpu.icache.blocked_cycles::no_targets            0                       # number of cycles access was blocked
system.cpu.icache.blocked::no_mshrs                 0                       # number of cycles access was blocked
system.cpu.icache.blocked::no_targets               0                       # number of cycles access was blocked
system.cpu.icache.avg_blocked_cycles::no_mshrs          nan                       # average number of cycles each access was blocked
system.cpu.icache.avg_blocked_cycles::no_targets          nan                       # average number of cycles each access was blocked
system.cpu.icache.writebacks::.writebacks         1249                       # number of writebacks
system.cpu.icache.writebacks::total              1249                       # number of writebacks
system.cpu.icache.demand_mshr_misses::.cpu.inst         1762                       # number of demand (read+write) MSHR misses
system.cpu.icache.demand_mshr_misses::total         1762                       # number of demand (read+write) MSHR misses
system.cpu.icache.overall_mshr_misses::.cpu.inst         1762                       # number of overall MSHR misses
system.cpu.icache.overall_mshr_misses::total         1762                       # number of overall MSHR misses
system.cpu.icache.demand_mshr_miss_latency::.cpu.inst    127681000                       # number of demand (read+write) MSHR miss cycles
system.cpu.icache.demand_mshr_miss_latency::total    127681000                       # number of demand (read+write) MSHR miss cycles
system.cpu.icache.overall_mshr_miss_latency::.cpu.inst    127681000                       # number of overall MSHR miss cycles
system.cpu.icache.overall_mshr_miss_latency::total    127681000                       # number of overall MSHR miss cycles
system.cpu.icache.demand_mshr_miss_rate::.cpu.inst     0.003312                       # mshr miss rate for demand accesses
system.cpu.icache.demand_mshr_miss_rate::total     0.003312                       # mshr miss rate for demand accesses
system.cpu.icache.overall_mshr_miss_rate::.cpu.inst     0.003312                       # mshr miss rate for overall accesses
system.cpu.icache.overall_mshr_miss_rate::total     0.003312                       # mshr miss rate for overall accesses
system.cpu.icache.demand_avg_mshr_miss_latency::.cpu.inst 72463.677639                       # average overall mshr miss latency
system.cpu.icache.demand_avg_mshr_miss_latency::total 72463.677639                       # average overall mshr miss latency
system.cpu.icache.overall_avg_mshr_miss_latency::.cpu.inst 72463.677639                       # average overall mshr miss latency
system.cpu.icache.overall_avg_mshr_miss_latency::total 72463.677639                       # average overall mshr miss latency
system.cpu.icache.replacements                   1249                       # number of replacements
system.cpu.icache.ReadReq_hits::.cpu.inst       530316                       # number of ReadReq hits
system.cpu.icache.ReadReq_hits::total          530316                       # number of ReadReq hits
system.cpu.icache.ReadReq_misses::.cpu.inst         1762                       # number of ReadReq misses
system.cpu.icache.ReadReq_misses::total          1762                       # number of ReadReq misses
system.cpu.icache.ReadReq_miss_latency::.cpu.inst    129442000                       # number of ReadReq miss cycles
system.cpu.icache.ReadReq_miss_latency::total    129442000                       # number of ReadReq miss cycles
system.cpu.icache.ReadReq_accesses::.cpu.inst       532078                       # number of ReadReq accesses(hits+misses)
system.cpu.icache.ReadReq_accesses::total       532078                       # number of ReadReq accesses(hits+misses)
system.cpu.icache.ReadReq_miss_rate::.cpu.inst     0.003312                       # miss rate for ReadReq accesses
system.cpu.icache.ReadReq_miss_rate::total     0.003312                       # miss rate for ReadReq accesses
system.cpu.icache.ReadReq_avg_miss_latency::.cpu.inst 73463.110102                       # average ReadReq miss latency
system.cpu.icache.ReadReq_avg_miss_latency::total 73463.110102                       # average ReadReq miss latency
system.cpu.icache.ReadReq_mshr_misses::.cpu.inst         1762                       # number of ReadReq MSHR misses
system.cpu.icache.ReadReq_mshr_misses::total         1762                       # number of ReadReq MSHR misses
system.cpu.icache.ReadReq_mshr_miss_latency::.cpu.inst    127681000                       # number of ReadReq MSHR miss cycles
system.cpu.icache.ReadReq_mshr_miss_latency::total    127681000                       # number of ReadReq MSHR miss cycles
system.cpu.icache.ReadReq_mshr_miss_rate::.cpu.inst     0.003312                       # mshr miss rate for ReadReq accesses
system.cpu.icache.ReadReq_mshr_miss_rate::total     0.003312                       # mshr miss rate for ReadReq accesses
system.cpu.icache.ReadReq_avg_mshr_miss_latency::.cpu.inst 72463.677639                       # average ReadReq mshr miss latency
system.cpu.icache.ReadReq_avg_mshr_miss_latency::total 72463.677639                       # average ReadReq mshr miss latency
system.cpu.icache.power_state.pwrStateResidencyTicks::UNDEFINED   4141664000                       # Cumulative time (in ticks) in various power states
system.cpu.icache.tags.tagsinuse           471.160176                       # Cycle average of tags in use
system.cpu.icache.tags.total_refs              195638                       # Total number of references to valid blocks.
system.cpu.icache.tags.sampled_refs              1249                       # Sample count of references to valid blocks.
system.cpu.icache.tags.avg_refs            156.635709                       # Average number of references to valid blocks.
system.cpu.icache.tags.warmup_cycle             87500                       # Cycle when the warmup percentage was hit.
system.cpu.icache.tags.occ_blocks::.cpu.inst   471.160176                       # Average occupied blocks per requestor
[...]
system.cpu.icache.ReadReq_mshr_miss_rate::.cpu.inst     0.069494                       # mshr miss rate for ReadReq accesses
system.cpu.icache.ReadReq_mshr_miss_rate::total     0.069494                       # mshr miss rate for ReadReq accesses
system.cpu.icache.ReadReq_avg_mshr_miss_latency::.cpu.inst 61683.703704                       # average ReadReq mshr miss latency
system.cpu.icache.ReadReq_avg_mshr_miss_latency::total 61683.703704                       # average ReadReq mshr miss latency
system.cpu.icache.power_state.pwrStateResidencyTicks::UNDEFINED    114815000                       # Cumulative time (in ticks) in various power states
system.cpu.icache.tags.tagsinuse                  512                       # Cycle average of tags in use
system.cpu.icache.tags.total_refs              350151                       # Total number of references to valid blocks.
system.cpu.icache.tags.sampled_refs              1186                       # Sample count of references to valid blocks.
system.cpu.icache.tags.avg_refs            295.236931                       # Average number of references to valid blocks.
system.cpu.icache.tags.warmup_cycle                 0                       # Cycle when the warmup percentage was hit.
system.cpu.icache.tags.occ_blocks::.cpu.inst          512                       # Average occupied blocks per requestor
system.cpu.icache.tags.occ_percent::.cpu.inst            1                       # Average percentage of cache occupancy
system.cpu.icache.tags.occ_percent::total            1                       # Average percentage of cache occupancy
system.cpu.icache.tags.occ_task_id_blocks::1024          512                       # Occupied blocks per task id
system.cpu.icache.tags.age_task_id_blocks_1024::0           81                       # Occupied blocks per task id
system.cpu.icache.tags.age_task_id_blocks_1024::1          309                       # Occupied blocks per task id
system.cpu.icache.tags.age_task_id_blocks_1024::2           63                       # Occupied blocks per task id
system.cpu.icache.tags.age_task_id_blocks_1024::3           59                       # Occupied blocks per task id
system.cpu.icache.tags.occ_task_id_percent::1024            1                       # Percentage of cache occupancy per task id
system.cpu.icache.tags.tag_accesses             20100                       # Number of tag accesses
system.cpu.icache.tags.data_accesses            20100                       # Number of data accesses
system.cpu.icache.tags.power_state.pwrStateResidencyTicks::UNDEFINED    114815000                       # Cumulative time (in ticks) in various power states
system.cpu.dtb.walker.power_state.pwrStateResidencyTicks::UNDEFINED    114815000                       # Cumulative time (in ticks) in various power states
system.cpu.interrupts.clk_domain.clock           8000                       # Clock period in ticks
system.cpu.itb_walker_cache.blocked_cycles::no_mshrs            0                       # number of cycles access was blocked
system.cpu.itb_walker_cache.blocked_cycles::no_targets            0                       # number of cycles access was blocked
system.cpu.itb_walker_cache.blocked::no_mshrs            0                       # number of cycles access was blocked
system.cpu.itb_walker_cache.blocked::no_targets            0                       # number of cycles access was blocked
system.cpu.itb_walker_cache.avg_blocked_cycles::no_mshrs          nan                       # average number of cycles each access was blocked
system.cpu.itb_walker_cache.avg_blocked_cycles::no_targets          nan                       # average number of cycles each access was blocked
system.cpu.itb_walker_cache.replacements            0                       # number of replacements
system.cpu.itb_walker_cache.power_state.pwrStateResidencyTicks::UNDEFINED    114815000                       # Cumulative time (in ticks) in various power states
system.cpu.itb_walker_cache.tags.tagsinuse            0                       # Cycle average of tags in use
system.cpu.itb_walker_cache.tags.total_refs            0                       # Total number of references to valid blocks.
system.cpu.itb_walker_cache.tags.sampled_refs            0                       # Sample count of references to valid blocks.
system.cpu.itb_walker_cache.tags.avg_refs          nan                       # Average number of references to valid blocks.
system.cpu.itb_walker_cache.tags.warmup_cycle            0                       # Cycle when the warmup percentage was hit.
system.cpu.itb_walker_cache.tags.tag_accesses            0                       # Number of tag accesses
system.cpu.itb_walker_cache.tags.data_accesses            0                       # Number of data accesses
system.cpu.itb_walker_cache.tags.power_state.pwrStateResidencyTicks::UNDEFINED    114815000                       # Cumulative time (in ticks) in various power states
system.cpu.dtb_walker_cache.blocked_cycles::no_mshrs            0                       # number of cycles access was blocked
system.cpu.dtb_walker_cache.blocked_cycles::no_targets            0                       # number of cycles access was blocked
system.cpu.dtb_walker_cache.blocked::no_mshrs            0                       # number of cycles access was blocked
system.cpu.dtb_walker_cache.blocked::no_targets            0                       # number of cycles access was blocked
system.cpu.dtb_walker_cache.avg_blocked_cycles::no_mshrs          nan                       # average number of cycles each access was blocked
system.cpu.dtb_walker_cache.avg_blocked_cycles::no_targets          nan                       # average number of cycles each access was blocked
system.cpu.dtb_walker_cache.replacements            0                       # number of replacements
system.cpu.dtb_walker_cache.power_state.pwrStateResidencyTicks::UNDEFINED    114815000                       # Cumulative time (in ticks) in various power states
system.cpu.dtb_walker_cache.tags.tagsinuse            0                       # Cycle average of tags in use
system.cpu.dtb_walker_cache.tags.total_refs            0                       # Total number of references to valid blocks.
system.cpu.dtb_walker_cache.tags.sampled_refs            0                       # Sample count of references to valid blocks.
system.cpu.dtb_walker_cache.tags.avg_refs          nan                       # Average number of references to valid blocks.
system.cpu.dtb_walker_cache.tags.warmup_cycle            0                       # Cycle when the warmup percentage was hit.
system.cpu.dtb_walker_cache.tags.tag_accesses            0                       # Number of tag accesses
system.cpu.dtb_walker_cache.tags.data_accesses            0                       # Number of data accesses
system.cpu.dtb_walker_cache.tags.power_state.pwrStateResidencyTicks::UNDEFINED    114815000                       # Cumulative time (in ticks) in various power states
system.cpu.dcache.demand_hits::.cpu.data        11380                       # number of demand (read+write) hits
system.cpu.dcache.demand_hits::total            11380                       # number of demand (read+write) hits
system.cpu.dcache.overall_hits::.cpu.data        11380                       # number of overall hits
system.cpu.dcache.overall_hits::total           11380                       # number of overall hits
system.cpu.dcache.demand_misses::.cpu.data          372                       # number of demand (read+write) misses
system.cpu.dcache.demand_misses::total            372                       # number of demand (read+write) misses
system.cpu.dcache.overall_misses::.cpu.data          372                       # number of overall misses
system.cpu.dcache.overall_misses::total           372                       # number of overall misses
system.cpu.dcache.demand_miss_latency::.cpu.data      9858500                       # number of demand (read+write) miss cycles
system.cpu.dcache.demand_miss_latency::total      9858500                       # number of demand (read+write) miss cycles
system.cpu.dcache.overall_miss_latency::.cpu.data      9858500                       # number of overall miss cycles
system.cpu.dcache.overall_miss_latency::total      9858500                       # number of overall miss cycles
system.cpu.dcache.demand_accesses::.cpu.data        11752                       # number of demand (read+write) accesses
system.cpu.dcache.demand_accesses::total        11752                       # number of demand (read+write) accesses
system.cpu.dcache.overall_accesses::.cpu.data        11752                       # number of overall (read+write) accesses
system.cpu.dcache.overall_accesses::total        11752                       # number of overall (read+write) accesses
system.cpu.dcache.demand_miss_rate::.cpu.data     0.031654                       # miss rate for demand accesses
system.cpu.dcache.demand_miss_rate::total     0.031654                       # miss rate for demand accesses
system.cpu.dcache.overall_miss_rate::.cpu.data     0.031654                       # miss rate for overall accesses
system.cpu.dcache.overall_miss_rate::total     0.031654                       # miss rate for overall accesses
system.cpu.dcache.demand_avg_miss_latency::.cpu.data 26501.344086                       # average overall miss latency
system.cpu.dcache.demand_avg_miss_latency::total 26501.344086                       # average overall miss latency
system.cpu.dcache.overall_avg_miss_latency::.cpu.data 26501.344086                       # average overall miss latency
system.cpu.dcache.overall_avg_miss_latency::total 26501.344086                       # average overall miss latency
system.cpu.dcache.blocked_cycles::no_mshrs            0                       # number of cycles access was blocked
system.cpu.dcache.blocked_cycles::no_targets            0                       # number of cycles access was blocked
system.cpu.dcache.blocked::no_mshrs                 0                       # number of cycles access was blocked
system.cpu.dcache.blocked::no_targets               0                       # number of cycles access was blocked
system.cpu.dcache.avg_blocked_cycles::no_mshrs          nan                       # average number of cycles each access was blocked
system.cpu.dcache.avg_blocked_cycles::no_targets          nan                       # average number of cycles each access was blocked
system.cpu.dcache.writebacks::.writebacks          147                       # number of writebacks
system.cpu.dcache.writebacks::total               147                       # number of writebacks
system.cpu.dcache.demand_mshr_misses::.cpu.data          372                       # number of demand (read+write) MSHR misses
system.cpu.dcache.demand_mshr_misses::total          372                       # number of demand (read+write) MSHR misses
system.cpu.dcache.overall_mshr_misses::.cpu.data          372                       # number of overall MSHR misses
system.cpu.dcache.overall_mshr_misses::total          372                       # number of overall MSHR misses
system.cpu.dcache.demand_mshr_miss_latency::.cpu.data      9486500                       # number of demand (read+write) MSHR miss cycles
system.cpu.dcache.demand_mshr_miss_latency::total      9486500                       # number of demand (read+write) MSHR miss cycles
system.cpu.dcache.overall_mshr_miss_latency::.cpu.data      9486500                       # number of overall MSHR miss cycles
system.cpu.dcache.overall_mshr_miss_latency::total      9486500                       # number of overall MSHR miss cycles
system.cpu.dcache.demand_mshr_miss_rate::.cpu.data     0.031654                       # mshr miss rate for demand accesses
system.cpu.dcache.demand_mshr_miss_rate::total     0.031654                       # mshr miss rate for demand accesses
system.cpu.dcache.overall_mshr_miss_rate::.cpu.data     0.031654                       # mshr miss rate for overall accesses
system.cpu.dcache.overall_mshr_miss_rate::total     0.031654                       # mshr miss rate for overall accesses
system.cpu.dcache.demand_avg_mshr_miss_latency::.cpu.data 25501.344086                       # average overall mshr miss latency
system.cpu.dcache.demand_avg_mshr_miss_latency::total 25501.344086                       # average overall mshr miss latency
system.cpu.dcache.overall_avg_mshr_miss_latency::.cpu.data 25501.344086                       # average overall mshr miss latency
system.cpu.dcache.overall_avg_mshr_miss_latency::total 25501.344086                       # average overall mshr miss latency
system.cpu.dcache.replacements                    372                       # number of replacements
system.cpu.dcache.ReadReq_hits::.cpu.data         7632                       # number of ReadReq hits
system.cpu.dcache.ReadReq_hits::total            7632                       # number of ReadReq hits
system.cpu.dcache.ReadReq_misses::.cpu.data          328                       # number of ReadReq misses
system.cpu.dcache.ReadReq_misses::total           328                       # number of ReadReq misses
system.cpu.dcache.ReadReq_miss_latency::.cpu.data      7540500                       # number of ReadReq miss cycles
system.cpu.dcache.ReadReq_miss_latency::total      7540500                       # number of ReadReq miss cycles
system.cpu.dcache.ReadReq_accesses::.cpu.data         7960                       # number of ReadReq accesses(hits+misses)
system.cpu.dcache.ReadReq_accesses::total         7960                       # number of ReadReq accesses(hits+misses)
system.cpu.dcache.ReadReq_miss_rate::.cpu.data     0.041206                       # miss rate for ReadReq accesses
system.cpu.dcache.ReadReq_miss_rate::total     0.041206                       # miss rate for ReadReq accesses
system.cpu.dcache.ReadReq_avg_miss_latency::.cpu.data 22989.329268                       # average ReadReq miss latency
system.cpu.dcache.ReadReq_avg_miss_latency::total 22989.329268                       # average ReadReq miss latency
system.cpu.dcache.ReadReq_mshr_misses::.cpu.data          328                       # number of ReadReq MSHR misses
system.cpu.dcache.ReadReq_mshr_misses::total          328                       # number of ReadReq MSHR misses
system.cpu.dcache.ReadReq_mshr_miss_latency::.cpu.data      7212500                       # number of ReadReq MSHR miss cycles
system.cpu.dcache.ReadReq_mshr_miss_latency::total      7212500                       # number of ReadReq MSHR miss cycles
system.cpu.dcache.ReadReq_mshr_miss_rate::.cpu.data     0.041206                       # mshr miss rate for ReadReq accesses
system.cpu.dcache.ReadReq_mshr_miss_rate::total     0.041206                       # mshr miss rate for ReadReq accesses
system.cpu.dcache.ReadReq_avg_mshr_miss_latency::.cpu.data 21989.329268                       # average ReadReq mshr miss latency
system.cpu.dcache.ReadReq_avg_mshr_miss_latency::total 21989.329268                       # average ReadReq mshr miss latency
system.cpu.dcache.WriteReq_hits::.cpu.data         3748                       # number of WriteReq hits
system.cpu.dcache.WriteReq_hits::total           3748                       # number of WriteReq hits
system.cpu.dcache.WriteReq_misses::.cpu.data           44                       # number of WriteReq misses
system.cpu.dcache.WriteReq_misses::total           44                       # number of WriteReq misses
system.cpu.dcache.WriteReq_miss_latency::.cpu.data      2318000                       # number of WriteReq miss cycles
system.cpu.dcache.WriteReq_miss_latency::total      2318000                       # number of WriteReq miss cycles
system.cpu.dcache.WriteReq_accesses::.cpu.data         3792                       # number of WriteReq accesses(hits+misses)
system.cpu.dcache.WriteReq_accesses::total         3792                       # number of WriteReq accesses(hits+misses)
system.cpu.dcache.WriteReq_miss_rate::.cpu.data     0.011603                       # miss rate for WriteReq accesses
system.cpu.dcache.WriteReq_miss_rate::total     0.011603                       # miss rate for WriteReq accesses
system.cpu.dcache.WriteReq_avg_miss_latency::.cpu.data 52681.818182                       # average WriteReq miss latency
system.cpu.dcache.WriteReq_avg_miss_latency::total 52681.818182                       # average WriteReq miss latency
system.cpu.dcache.WriteReq_mshr_misses::.cpu.data           44                       # number of WriteReq MSHR misses
system.cpu.dcache.WriteReq_mshr_misses::total           44                       # number of WriteReq MSHR misses
system.cpu.dcache.WriteReq_mshr_miss_latency::.cpu.data      2274000                       # number of WriteReq MSHR miss cycles
system.cpu.dcache.WriteReq_mshr_miss_latency::total      2274000                       # number of WriteReq MSHR miss cycles
system.cpu.dcache.WriteReq_mshr_miss_rate::.cpu.data     0.011603                       # mshr miss rate for WriteReq accesses
system.cpu.dcache.WriteReq_mshr_miss_rate::total     0.011603                       # mshr miss rate for WriteReq accesses
system.cpu.dcache.WriteReq_avg_mshr_miss_latency::.cpu.data 51681.818182                       # average WriteReq mshr miss latency
system.cpu.dcache.WriteReq_avg_mshr_miss_latency::total 51681.818182                       # average WriteReq mshr miss latency
system.cpu.dcache.power_state.pwrStateResidencyTicks::UNDEFINED    114815000                       # Cumulative time (in ticks) in various power states
system.cpu.dcache.tags.tagsinuse                 1024                       # Cycle average of tags in use
system.cpu.dcache.tags.total_refs              107793                       # Total number of references to valid blocks.
system.cpu.dcache.tags.sampled_refs              1396                       # Sample count of references to valid blocks.
system.cpu.dcache.tags.avg_refs             77.215616                       # Average number of references to valid blocks.
system.cpu.dcache.tags.warmup_cycle                 0                       # Cycle when the warmup percentage was hit.
system.cpu.dcache.tags.occ_blocks::.cpu.data         1024                       # Average occupied blocks per requestor
system.cpu.dcache.tags.occ_percent::.cpu.data            1                       # Average percentage of cache occupancy
system.cpu.dcache.tags.occ_percent::total            1                       # Average percentage of cache occupancy
system.cpu.dcache.tags.occ_task_id_blocks::1024         1024                       # Occupied blocks per task id
system.cpu.dcache.tags.age_task_id_blocks_1024::0           52                       # Occupied blocks per task id
system.cpu.dcache.tags.age_task_id_blocks_1024::1          267                       # Occupied blocks per task id
system.cpu.dcache.tags.age_task_id_blocks_1024::2          678                       # Occupied blocks per task id
system.cpu.dcache.tags.age_task_id_blocks_1024::3           27                       # Occupied blocks per task id
system.cpu.dcache.tags.occ_task_id_percent::1024            1                       # Percentage of cache occupancy per task id
system.cpu.dcache.tags.tag_accesses             23876                       # Number of tag accesses
system.cpu.dcache.tags.data_accesses            23876                       # Number of data accesses
system.cpu.dcache.tags.power_state.pwrStateResidencyTicks::UNDEFINED    114815000                       # Cumulative time (in ticks) in various power states
system.cpu.power_state.pwrStateResidencyTicks::ON    114815000                       # Cumulative time (in ticks) in various power states
system.cpu.itb.walker.power_state.pwrStateResidencyTicks::UNDEFINED    114815000                       # Cumulative time (in ticks) in various power states

---------- End Simulation Statistics   ----------
